!! This osm is intended to implement
!! Normative Appendix E of https://performancesystemspsd.sharepoint.com/:w:/r/sites/EnergyEngineeringServices/_layouts/15/Doc.aspx?sourcedoc=%7B79FA7E0C-577B-46EB-A46F-ADD7A04942F4%7D&file=Std229P_2nd_PPR_Draft_V1.docx&action=default&mobileredirect=true
!! exceptions which were not able to be implemented are listed here:
!! 1. Table 6: Interior Air Film Resistance Summary  was unable to be implemented
!! E1.7.2.3.1 d, The exterior air-film resistance for roof and exterior walls was unable to be implemented
!!
!! 2. The ground temperature schedule set in E1.7.2.1 was adjusted from 10 C to 21C otherwise no cooling load was present

OS:Version,
  {4e7ae713-4be1-469e-95dc-ae2ed34d0cdb}, !- Handle
  3.8.0;                                  !- Version Identifier

!! Zone equipment fan pressure rise was calculated from Table 3 of Appendix F 
!! calculated from a target power of 600 W 
!! A fan efficiency of 0.7
!! and a design airflow of 943.9 L/s 
!! Pressure rise = 600 * 0.7 / 0.9339 = 445 Pa

!! No Fan efficiency was given in the spec so it was taken to be 0.7

!! IEER for cooling given in Table 12 A of Appendix F 
!! was converted to a COP of 3.56 
!! using https://github.com/NREL/openstudio-standards/pull/1682

!! HSPF for heating given in Table Table 12 A of Appendix F 
!! was converted to a COP of 3.35 using
!! https://github.com/NREL/openstudio-standards/blob/master/lib/openstudio-standards/prototypes/common/objects/Prototype.utilities.rb#L307-L311
!! which is the hspf_to_cop_no_fan method in OpenStudio standards

OS:Site,
  {b3f399e6-dd21-4abe-86a4-0f68b83115cf}, !- Handle
  Denver Intl AP,                         !- Name
  39.833,                                 !- Latitude {deg}
  -104.65,                                !- Longitude {deg}
  -7,                                     !- Time Zone {hr}
  1650,                                   !- Elevation {m}
  City;                                   !- Terrain

OS:SimulationControl,
  {295524cd-e809-4bcc-b615-2b929609c56a}, !- Handle
  Yes,                                    !- Do Zone Sizing Calculation
  Yes,                                    !- Do System Sizing Calculation
  Yes,                                    !- Do Plant Sizing Calculation
  No,                                     !- Run Simulation for Sizing Periods
  Yes,                                    !- Run Simulation for Weather File Run Periods
  0.04,                                   !- Loads Convergence Tolerance Value {W}
  0.2,                                    !- Temperature Convergence Tolerance Value {deltaC}
  FullInteriorAndExterior,                !- Solar Distribution
  25,                                     !- Maximum Number of Warmup Days
  6,                                      !- Minimum Number of Warmup Days
  No,                                     !- Do HVAC Sizing Simulation for Sizing Periods
  1;                                      !- Maximum Number of HVAC Sizing Simulation Passes

OS:Building,
  {9e9d700c-ea0f-41e4-b594-3d7d44e99ed4}, !- Handle
  Model for 229 Test Cases,               !- Name
  ,                                       !- Building Sector Type
  0,                                      !- North Axis {deg}
  ,                                       !- Nominal Floor to Floor Height {m}
  ,                                       !- Space Type Name
  ,                                       !- Default Construction Set Name
  ;                                       !- Default Schedule Set Name

OS:ShadowCalculation,
  {6a1a76f2-8788-4ad0-a9bb-c13e21a85f89}, !- Handle
  PolygonClipping,                        !- Shading Calculation Method
  Periodic,                               !- Shading Calculation Update Frequency Method
  30,                                     !- Shading Calculation Update Frequency
  15000,                                  !- Maximum Figures in Shadow Overlap Calculations
  ,                                       !- Polygon Clipping Algorithm
  512,                                    !- Pixel Counting Resolution
  ,                                       !- Sky Diffuse Modeling Algorithm
  No,                                     !- Output External Shading Calculation Results
  No,                                     !- Disable Self-Shading Within Shading Zone Groups
  No;                                     !- Disable Self-Shading From Shading Zone Groups to Other Zones

OS:HeatBalanceAlgorithm,
  {ab6ee980-7cda-47fe-b7db-2ae019754783}, !- Handle
  ConductionTransferFunction,             !- Algorithm
  200;                                    !- Surface Temperature Upper Limit {C}

OS:ZoneAirHeatBalanceAlgorithm,
  {25b92324-f5d3-4af9-875b-2fc97c901d46}, !- Handle
  AnalyticalSolution,                     !- Algorithm
  No,                                     !- Do Space Heat Balance for Sizing
  ;                                       !- Do Space Heat Balance for Simulation

OS:Timestep,
  {aca9aff3-7479-4a90-a99b-5f6e833b4653}, !- Handle
  4;                                      !- Number of Timesteps per Hour

OS:ConvergenceLimits,
  {0836bb85-f6c5-4f15-ac9e-b5a342829e58}, !- Handle
  1,                                      !- Minimum System Timestep {minutes}
  20;                                     !- Maximum HVAC Iterations

OS:RunPeriod,
  {4839da44-bcb0-4ad4-8876-dbe859d82be7}, !- Handle
  Annual,                                 !- Name
  1,                                      !- Begin Month
  1,                                      !- Begin Day of Month
  12,                                     !- End Month
  31,                                     !- End Day of Month
  No,                                     !- Use Weather File Holidays and Special Days
  No,                                     !- Use Weather File Daylight Saving Period
  No,                                     !- Apply Weekend Holiday Rule
  Yes,                                    !- Use Weather File Rain Indicators
  Yes,                                    !- Use Weather File Snow Indicators
  ;                                       !- Number of Times Runperiod to be Repeated

OS:YearDescription,
  {6f941808-f155-4e2e-ad0e-ce75e3f04f2e}, !- Handle
  ,                                       !- Calendar Year
  Friday,                                 !- Day of Week for Start Day
  ;                                       !- Is Leap Year

OS:Schedule:Compact,
  {e79dd42d-3128-4ab6-9f94-200d51391828}, !- Handle
  Perimeter_bot_ZN_3 DHW Sch,             !- Name
  {c9e0a22a-637b-49c9-bc16-cec37e8a14ea}, !- Schedule Type Limits Name
  Through: 12/31,                         !- Field 1
  For: WeekDays SummerDesignDay WinterDesignDay, !- Field 2
  Until: 7:00,                            !- Field 3
  0.0,                                    !- Field 4
  Until: 8:00,                            !- Field 5
  0.27,                                   !- Field 6
  Until: 9:00,                            !- Field 7
  0.55,                                   !- Field 8
  Until: 11:00,                           !- Field 9
  0.64,                                   !- Field 10
  Until: 12:00,                           !- Field 11
  0.82,                                   !- Field 12
  Until: 13:00,                           !- Field 13
  1.0,                                    !- Field 14
  Until: 14:00,                           !- Field 15
  0.91,                                   !- Field 16
  Until: 16:00,                           !- Field 17
  0.55,                                   !- Field 18
  Until: 17:00,                           !- Field 19
  0.73,                                   !- Field 20
  Until: 19:00,                           !- Field 21
  0.37,                                   !- Field 22
  Until: 20:00,                           !- Field 23
  0.18,                                   !- Field 24
  Until: 21:00,                           !- Field 25
  0.27,                                   !- Field 26
  Until: 22:00,                           !- Field 27
  0.09,                                   !- Field 28
  Until: 24:00,                           !- Field 29
  0.0,                                    !- Field 30
  For: AllOtherDays,                      !- Field 31
  Until: 24:00,                           !- Field 32
  0.0;                                    !- Field 33

OS:ScheduleTypeLimits,
  {c9e0a22a-637b-49c9-bc16-cec37e8a14ea}, !- Handle
  Unit Interval,                          !- Name
  0,                                      !- Lower Limit Value
  1,                                      !- Upper Limit Value
  Continuous,                             !- Numeric Type
  Dimensionless;                          !- Unit Type

OS:RunPeriodControl:SpecialDays,
  {08e3a165-0f55-4175-9077-b2e16a7340a8}, !- Handle
  Christmas,                              !- Name
  December 25,                            !- Start Date
  1,                                      !- Duration {days}
  Holiday;                                !- Special Day Type

OS:RunPeriodControl:SpecialDays,
  {3428fe82-584c-45e9-a371-78936063cc17}, !- Handle
  Columbus Day,                           !- Name
  2nd Monday in October,                  !- Start Date
  1,                                      !- Duration {days}
  Holiday;                                !- Special Day Type

OS:RunPeriodControl:SpecialDays,
  {fe63178e-d14b-48b1-9204-51a97a07de60}, !- Handle
  Independence Day,                       !- Name
  July 4,                                 !- Start Date
  1,                                      !- Duration {days}
  Holiday;                                !- Special Day Type

OS:RunPeriodControl:SpecialDays,
  {86200c95-7760-4efd-9573-bf24f6268231}, !- Handle
  Labor Day,                              !- Name
  1st Monday in September,                !- Start Date
  1,                                      !- Duration {days}
  Holiday;                                !- Special Day Type

OS:RunPeriodControl:SpecialDays,
  {a1dd9225-ae60-447b-8661-ffe64e7f492f}, !- Handle
  MLK Day,                                !- Name
  3rd Monday in January,                  !- Start Date
  1,                                      !- Duration {days}
  Holiday;                                !- Special Day Type

OS:RunPeriodControl:SpecialDays,
  {3af001cd-2a9f-4f1d-ad61-17b32933342c}, !- Handle
  Memorial Day,                           !- Name
  Last Monday in May,                     !- Start Date
  1,                                      !- Duration {days}
  Holiday;                                !- Special Day Type

OS:RunPeriodControl:SpecialDays,
  {cb1a9c08-a3d1-4523-b1ff-a4791572905c}, !- Handle
  New Years Day,                          !- Name
  January 1,                              !- Start Date
  1,                                      !- Duration {days}
  Holiday;                                !- Special Day Type

OS:Curve:Quadratic,
  {0b59f2a3-a498-4875-8ff0-969b5e139bec}, !- Handle
  MZ-VAV-G Cool-Cap-fFF1,                 !- Name
  0.718954,                               !- Coefficient1 Constant
  0.435436,                               !- Coefficient2 x
  -0.154193,                              !- Coefficient3 x**2
  0.75,                                   !- Minimum Value of x
  1.25;                                   !- Maximum Value of x

OS:RunPeriodControl:SpecialDays,
  {580dff55-e87e-449a-9e37-5b6b1f60e69d}, !- Handle
  Presidents Day,                         !- Name
  3rd Monday in February,                 !- Start Date
  1,                                      !- Duration {days}
  Holiday;                                !- Special Day Type

OS:RunPeriodControl:SpecialDays,
  {df3c9c76-8c54-4ac7-ade1-8d2f52d8c651}, !- Handle
  Thanksgiving,                           !- Name
  4th Thursday in November,               !- Start Date
  1,                                      !- Duration {days}
  Holiday;                                !- Special Day Type

OS:RunPeriodControl:SpecialDays,
  {e2b65211-8edf-4504-addb-33544daf9259}, !- Handle
  Veterans Day,                           !- Name
  November 11,                            !- Start Date
  1,                                      !- Duration {days}
  Holiday;                                !- Special Day Type

OS:ScheduleTypeLimits,
  {8ecf8377-4d8a-4ee9-a150-a2340a5c4a5e}, !- Handle
  Any Number,                             !- Name
  ,                                       !- Lower Limit Value
  ,                                       !- Upper Limit Value
  Continuous,                             !- Numeric Type
  Dimensionless;                          !- Unit Type

OS:ScheduleTypeLimits,
  {e4e518c2-0884-4fa0-9e21-f97d81fbd420}, !- Handle
  Binary Control,                         !- Name
  0,                                      !- Lower Limit Value
  1,                                      !- Upper Limit Value
  Discrete,                               !- Numeric Type
  Control;                                !- Unit Type

OS:Schedule:Constant,
  {9d583e36-2c12-48ab-95ba-03ab609b75e7}, !- Handle
  MZ-VAV-G Always On Schedule,            !- Name
  {8ecf8377-4d8a-4ee9-a150-a2340a5c4a5e}, !- Schedule Type Limits Name
  1;                                      !- Value

OS:ScheduleTypeLimits,
  {58a93673-0a0b-4bb8-afaa-d62a07099a0d}, !- Handle
  Control Type,                           !- Name
  0,                                      !- Lower Limit Value
  4,                                      !- Upper Limit Value
  Discrete,                               !- Numeric Type
  ControlMode;                            !- Unit Type

OS:ScheduleTypeLimits,
  {dcd20359-6818-4a42-8202-c92a58b28817}, !- Handle
  Fan Mode Control,                       !- Name
  0,                                      !- Lower Limit Value
  1,                                      !- Upper Limit Value
  Discrete,                               !- Numeric Type
  Control;                                !- Unit Type

OS:ScheduleTypeLimits,
  {3b18ab38-2d2d-4351-b4dd-ff6f6577c6b4}, !- Handle
  Fraction,                               !- Name
  0,                                      !- Lower Limit Value
  1,                                      !- Upper Limit Value
  Continuous;                             !- Numeric Type

OS:ScheduleTypeLimits,
  {99834ab4-3e2f-490c-ad25-a8e739b339a1}, !- Handle
  Humidity,                               !- Name
  10,                                     !- Lower Limit Value
  90,                                     !- Upper Limit Value
  Continuous;                             !- Numeric Type

OS:ScheduleTypeLimits,
  {32122272-3b12-45cc-b260-db5ff7467d3d}, !- Handle
  Humidity Ratio,                         !- Name
  0,                                      !- Lower Limit Value
  0.03,                                   !- Upper Limit Value
  Continuous,                             !- Numeric Type
  Dimensionless;                          !- Unit Type

OS:ScheduleTypeLimits,
  {355813a1-cbfc-4626-965e-bf597fcbf8ca}, !- Handle
  Nonnegative Number,                     !- Name
  0,                                      !- Lower Limit Value
  ,                                       !- Upper Limit Value
  Continuous,                             !- Numeric Type
  Dimensionless;                          !- Unit Type

OS:ScheduleTypeLimits,
  {7fdc7741-42f9-4958-9765-1be250105e42}, !- Handle
  On/Off,                                 !- Name
  0,                                      !- Lower Limit Value
  1,                                      !- Upper Limit Value
  Discrete,                               !- Numeric Type
  Availability;                           !- Unit Type

OS:ScheduleTypeLimits,
  {2ac8a4c2-9776-40f8-9308-2bd3ea40fad1}, !- Handle
  Relative Humidity,                      !- Name
  0,                                      !- Lower Limit Value
  100,                                    !- Upper Limit Value
  Continuous,                             !- Numeric Type
  Percent;                                !- Unit Type

OS:ScheduleTypeLimits,
  {ecf02e8b-7141-48c9-a29f-98062bda2e8a}, !- Handle
  Temperature,                            !- Name
  -100,                                   !- Lower Limit Value
  200,                                    !- Upper Limit Value
  Continuous,                             !- Numeric Type
  Temperature;                            !- Unit Type

OS:ScheduleTypeLimits,
  {84eef09f-5b4f-4eb0-af76-a26dbe83b26c}, !- Handle
  Thermostat Control,                     !- Name
  0,                                      !- Lower Limit Value
  4,                                      !- Upper Limit Value
  Discrete,                               !- Numeric Type
  Control;                                !- Unit Type

OS:Schedule:Compact,
  {349325ef-3432-407a-a634-639e77f377be}, !- Handle
  Core_bottom Cooling Setpoint Schedule,  !- Name
  {ecf02e8b-7141-48c9-a29f-98062bda2e8a}, !- Schedule Type Limits Name
  Through: 12/31,                         !- Field 1
  For: Weekdays SummerDesignDay,          !- Field 2
  Until: 06:00,                           !- Field 3
  29.444444444444443,                     !- Field 4
  Until: 22:00,                           !- Field 5
  23.88888888888889,                      !- Field 6
  Until: 24:00,                           !- Field 7
  29.444444444444443,                     !- Field 8
  For: Saturday WinterDesignDay,          !- Field 9
  Until: 06:00,                           !- Field 10
  29.444444444444443,                     !- Field 11
  Until: 18:00,                           !- Field 12
  23.88888888888889,                      !- Field 13
  Until: 24:00,                           !- Field 14
  29.444444444444443,                     !- Field 15
  For: AllOtherDays,                      !- Field 16
  Until: 24:00,                           !- Field 17
  29.444444444444443;                     !- Field 18

OS:Schedule:Compact,
  {e14a1347-c984-4f32-be7b-711770e2b09a}, !- Handle
  Core_bottom DHW Sch,                    !- Name
  {c9e0a22a-637b-49c9-bc16-cec37e8a14ea}, !- Schedule Type Limits Name
  Through: 12/31,                         !- Field 1
  For: WeekDays SummerDesignDay WinterDesignDay, !- Field 2
  Until: 7:00,                            !- Field 3
  0.0,                                    !- Field 4
  Until: 8:00,                            !- Field 5
  0.27,                                   !- Field 6
  Until: 9:00,                            !- Field 7
  0.55,                                   !- Field 8
  Until: 11:00,                           !- Field 9
  0.64,                                   !- Field 10
  Until: 12:00,                           !- Field 11
  0.82,                                   !- Field 12
  Until: 13:00,                           !- Field 13
  1.0,                                    !- Field 14
  Until: 14:00,                           !- Field 15
  0.91,                                   !- Field 16
  Until: 16:00,                           !- Field 17
  0.55,                                   !- Field 18
  Until: 17:00,                           !- Field 19
  0.73,                                   !- Field 20
  Until: 19:00,                           !- Field 21
  0.37,                                   !- Field 22
  Until: 20:00,                           !- Field 23
  0.18,                                   !- Field 24
  Until: 21:00,                           !- Field 25
  0.27,                                   !- Field 26
  Until: 22:00,                           !- Field 27
  0.09,                                   !- Field 28
  Until: 24:00,                           !- Field 29
  0.0,                                    !- Field 30
  For: AllOtherDays,                      !- Field 31
  Until: 24:00,                           !- Field 32
  0.0;                                    !- Field 33

OS:Schedule:Compact,
  {ae1cd5be-ad26-43b6-ba80-44dfd944c110}, !- Handle
  Core_Space_Elec_Equip_Sch,              !- Name
  {c9e0a22a-637b-49c9-bc16-cec37e8a14ea}, !- Schedule Type Limits Name
  Through: 12/31,                         !- Field 1
  For: Weekdays,                          !- Field 2
  Until: 06:00,                           !- Field 3
  0.3076738408,                           !- Field 4
  Until: 08:00,                           !- Field 5
  0.381234796,                            !- Field 6
  Until: 12:00,                           !- Field 7
  0.857778291,                            !- Field 8
  Until: 13:00,                           !- Field 9
  0.762469592,                            !- Field 10
  Until: 17:00,                           !- Field 11
  0.857778291,                            !- Field 12
  Until: 18:00,                           !- Field 13
  0.476543495,                            !- Field 14
  Until: 24:00,                           !- Field 15
  0.381234796,                            !- Field 16
  For: SummerDesignDay,                   !- Field 17
  Until: 24:00,                           !- Field 18
  1.0,                                    !- Field 19
  For: Saturday,                          !- Field 20
  Until: 06:00,                           !- Field 21
  0.2307553806,                           !- Field 22
  Until: 08:00,                           !- Field 23
  0.381234796,                            !- Field 24
  Until: 12:00,                           !- Field 25
  0.476543495,                            !- Field 26
  Until: 17:00,                           !- Field 27
  0.3335804465,                           !- Field 28
  Until: 19:00,                           !- Field 29
  0.285926097,                            !- Field 30
  Until: 24:00,                           !- Field 31
  0.2307553806,                           !- Field 32
  For: WinterDesignDay,                   !- Field 33
  Until: 24:00,                           !- Field 34
  0.0,                                    !- Field 35
  For: Sunday Holidays AllOtherDays,      !- Field 36
  Until: 06:00,                           !- Field 37
  0.2307553806,                           !- Field 38
  Until: 18:00,                           !- Field 39
  0.285926097,                            !- Field 40
  Until: 24:00,                           !- Field 41
  0.2307553806;                           !- Field 42

OS:Schedule:Compact,
  {d1a2a2c5-68b6-4067-90d6-a9a64cf42c61}, !- Handle
  Core_bottom Heating Setpoint Schedule,  !- Name
  {ecf02e8b-7141-48c9-a29f-98062bda2e8a}, !- Schedule Type Limits Name
  Through: 12/31,                         !- Field 1
  For: Weekdays SummerDesignDay,          !- Field 2
  Until: 06:00,                           !- Field 3
  15.555555555555555,                     !- Field 4
  Until: 22:00,                           !- Field 5
  21.11111111111111,                      !- Field 6
  Until: 24:00,                           !- Field 7
  15.555555555555555,                     !- Field 8
  For: Saturday WinterDesignDay,          !- Field 9
  Until: 06:00,                           !- Field 10
  15.555555555555555,                     !- Field 11
  Until: 18:00,                           !- Field 12
  21.11111111111111,                      !- Field 13
  Until: 24:00,                           !- Field 14
  15.555555555555555,                     !- Field 15
  For: AllOtherDays,                      !- Field 16
  Until: 24:00,                           !- Field 17
  15.555555555555555;                     !- Field 18

OS:Schedule:Compact,
  {92fd9798-353b-4eed-bc05-7d8ff8f75d62}, !- Handle
  Core_bottom Infiltration Schedule,      !- Name
  {8ecf8377-4d8a-4ee9-a150-a2340a5c4a5e}, !- Schedule Type Limits Name
  Through: 12/31,                         !- Field 1
  For: Weekdays SummerDesignDay,          !- Field 2
  Until: 06:00,                           !- Field 3
  1.0,                                    !- Field 4
  Until: 22:00,                           !- Field 5
  0.25,                                   !- Field 6
  Until: 24:00,                           !- Field 7
  1.0,                                    !- Field 8
  For: Saturday WinterDesignDay,          !- Field 9
  Until: 06:00,                           !- Field 10
  1.0,                                    !- Field 11
  Until: 18:00,                           !- Field 12
  0.25,                                   !- Field 13
  Until: 24:00,                           !- Field 14
  1.0,                                    !- Field 15
  For: AllOtherDays,                      !- Field 16
  Until: 24:00,                           !- Field 17
  1.0;                                    !- Field 18

OS:Schedule:Compact,
  {cb7bea82-6978-447e-a866-dd7252554f90}, !- Handle
  Core_Space_Lighting_Sch,                !- Name
  {c9e0a22a-637b-49c9-bc16-cec37e8a14ea}, !- Schedule Type Limits Name
  Through: 12/31,                         !- Field 1
  For: Weekdays,                          !- Field 2
  Until: 5:00,                            !- Field 3
  0.05,                                   !- Field 4
  Until: 6:00,                            !- Field 5
  0.1,                                    !- Field 6
  Until: 7:00,                            !- Field 7
  0.08623256,                             !- Field 8
  Until: 8:00,                            !- Field 9
  0.25869768,                             !- Field 10
  Until: 17:00,                           !- Field 11
  0.77609304,                             !- Field 12
  Until: 18:00,                           !- Field 13
  0.4311628,                              !- Field 14
  Until: 20:00,                           !- Field 15
  0.25869768,                             !- Field 16
  Until: 22:00,                           !- Field 17
  0.17246512,                             !- Field 18
  Until: 23:00,                           !- Field 19
  0.08623256,                             !- Field 20
  Until: 24:00,                           !- Field 21
  0.04311628,                             !- Field 22
  For: SummerDesignDay,                   !- Field 23
  Until: 24:00,                           !- Field 24
  1.0,                                    !- Field 25
  For: Saturday,                          !- Field 26
  Until: 6:00,                            !- Field 27
  0.05,                                   !- Field 28
  Until: 8:00,                            !- Field 29
  0.08623256,                             !- Field 30
  Until: 12:00,                           !- Field 31
  0.25869768,                             !- Field 32
  Until: 17:00,                           !- Field 33
  0.12934884,                             !- Field 34
  Until: 19:00,                           !- Field 35
  0.04311628,                             !- Field 36
  Until: 24:00,                           !- Field 37
  0.05,                                   !- Field 38
  For: WinterDesignDay,                   !- Field 39
  Until: 24:00,                           !- Field 40
  0.0,                                    !- Field 41
  For: Sunday Holidays AllOtherDays,      !- Field 42
  Until: 6:00,                            !- Field 43
  0.05,                                   !- Field 44
  Until: 18:00,                           !- Field 45
  0.04311628,                             !- Field 46
  Until: 24:00,                           !- Field 47
  0.05;                                   !- Field 48

OS:Schedule:Compact,
  {afbb4b2e-7b87-456e-844c-bcb8ac769b95}, !- Handle
  Core_bottom OA Schedule,                !- Name
  {e4e518c2-0884-4fa0-9e21-f97d81fbd420}, !- Schedule Type Limits Name
  Through: 12/31,                         !- Field 1
  For: Weekdays SummerDesignDay,          !- Field 2
  Until: 06:00,                           !- Field 3
  0.0,                                    !- Field 4
  Until: 22:00,                           !- Field 5
  1.0,                                    !- Field 6
  Until: 24:00,                           !- Field 7
  0.0,                                    !- Field 8
  For: Saturday WinterDesignDay,          !- Field 9
  Until: 06:00,                           !- Field 10
  0.0,                                    !- Field 11
  Until: 18:00,                           !- Field 12
  1.0,                                    !- Field 13
  Until: 24:00,                           !- Field 14
  0.0,                                    !- Field 15
  For: AllOtherDays,                      !- Field 16
  Until: 24:00,                           !- Field 17
  0.0;                                    !- Field 18

OS:Schedule:Compact,
  {64c63aec-faad-4eb0-afec-64d14e6df8a7}, !- Handle
  Core_Space Occupant Sch,                !- Name
  {c9e0a22a-637b-49c9-bc16-cec37e8a14ea}, !- Schedule Type Limits Name
  Through: 12/31,                         !- Field 1
  For: Weekdays,                          !- Field 2
  Until: 06:00,                           !- Field 3
  0.0,                                    !- Field 4
  Until: 07:00,                           !- Field 5
  0.1,                                    !- Field 6
  Until: 08:00,                           !- Field 7
  0.2,                                    !- Field 8
  Until: 10:00,                           !- Field 9
  0.95,                                   !- Field 10
  Until: 11:00,                           !- Field 11
  0.975703226795432,                      !- Field 12
  Until: 12:00,                           !- Field 13
  0.95,                                   !- Field 14
  Until: 13:00,                           !- Field 15
  0.513528014102859,                      !- Field 16
  Until: 14:00,                           !- Field 17
  0.95,                                   !- Field 18
  Until: 15:00,                           !- Field 19
  0.975703226795432,                      !- Field 20