
Version,
  24.2;                                   !- Version Identifier

Timestep,
  4;                                      !- Number of Timesteps per Hour

LifeCycleCost:Parameters,
  Life Cycle Cost Parameters,             !- Name
  EndOfYear,                              !- Discounting Convention
  ConstantDollar,                         !- Inflation Approach
  0.03,                                   !- Real Discount Rate
  ,                                       !- Nominal Discount Rate
  ,                                       !- Inflation
  ,                                       !- Base Date Month
  2011,                                   !- Base Date Year
  ,                                       !- Service Date Month
  2011,                                   !- Service Date Year
  25,                                     !- Length of Study Period in Years
  ,                                       !- Tax rate
  None;                                   !- Depreciation Method

LifeCycleCost:UsePriceEscalation,
  U.S. Avg  Commercial-Electricity,       !- Name
  Electricity,                            !- Resource
  2011,                                   !- Escalation Start Year
  January,                                !- Escalation Start Month
  0.9838,                                 !- Year Escalation 1
  0.9730,                                 !- Year Escalation 2
  0.9632,                                 !- Year Escalation 3
  0.9611,                                 !- Year Escalation 4
  0.9571,                                 !- Year Escalation 5
  0.9553,                                 !- Year Escalation 6
  0.9539,                                 !- Year Escalation 7
  0.9521,                                 !- Year Escalation 8
  0.9546,                                 !- Year Escalation 9
  0.9550,                                 !- Year Escalation 10
  0.9553,                                 !- Year Escalation 11
  0.9564,                                 !- Year Escalation 12
  0.9575,                                 !- Year Escalation 13
  0.9596,                                 !- Year Escalation 14
  0.9618,                                 !- Year Escalation 15
  0.9614,                                 !- Year Escalation 16
  0.9618,                                 !- Year Escalation 17
  0.9618,                                 !- Year Escalation 18
  0.9593,                                 !- Year Escalation 19
  0.9589,                                 !- Year Escalation 20
  0.9607,                                 !- Year Escalation 21
  0.9625,                                 !- Year Escalation 22
  0.9650,                                 !- Year Escalation 23
  0.9708,                                 !- Year Escalation 24
  0.9751,                                 !- Year Escalation 25
  0.9762,                                 !- Year Escalation 26
  0.9766,                                 !- Year Escalation 27
  0.9766,                                 !- Year Escalation 28
  0.9769,                                 !- Year Escalation 29
  0.9773;                                 !- Year Escalation 30

LifeCycleCost:UsePriceEscalation,
  U.S. Avg  Commercial-Distillate Oil,    !- Name
  FuelOilNo1,                             !- Resource
  2011,                                   !- Escalation Start Year
  January,                                !- Escalation Start Month
  0.9714,                                 !- Year Escalation 1
  0.9730,                                 !- Year Escalation 2
  0.9942,                                 !- Year Escalation 3
  1.0164,                                 !- Year Escalation 4
  1.0541,                                 !- Year Escalation 5
  1.0928,                                 !- Year Escalation 6
  1.1267,                                 !- Year Escalation 7
  1.1580,                                 !- Year Escalation 8
  1.1792,                                 !- Year Escalation 9
  1.1967,                                 !- Year Escalation 10
  1.2200,                                 !- Year Escalation 11
  1.2333,                                 !- Year Escalation 12
  1.2566,                                 !- Year Escalation 13
  1.2709,                                 !- Year Escalation 14
  1.2826,                                 !- Year Escalation 15
  1.2985,                                 !- Year Escalation 16
  1.3102,                                 !- Year Escalation 17
  1.3250,                                 !- Year Escalation 18
  1.3261,                                 !- Year Escalation 19
  1.3282,                                 !- Year Escalation 20
  1.3324,                                 !- Year Escalation 21
  1.3356,                                 !- Year Escalation 22
  1.3431,                                 !- Year Escalation 23
  1.3510,                                 !- Year Escalation 24
  1.3568,                                 !- Year Escalation 25
  1.3606,                                 !- Year Escalation 26
  1.3637,                                 !- Year Escalation 27
  1.3674,                                 !- Year Escalation 28
  1.3706,                                 !- Year Escalation 29
  1.3743;                                 !- Year Escalation 30

LifeCycleCost:UsePriceEscalation,
  U.S. Avg  Commercial-Residual Oil,      !- Name
  FuelOilNo2,                             !- Resource
  2011,                                   !- Escalation Start Year
  January,                                !- Escalation Start Month
  0.8469,                                 !- Year Escalation 1
  0.8257,                                 !- Year Escalation 2
  0.8681,                                 !- Year Escalation 3
  0.8988,                                 !- Year Escalation 4
  0.9289,                                 !- Year Escalation 5
  0.9604,                                 !- Year Escalation 6
  0.9897,                                 !- Year Escalation 7
  1.0075,                                 !- Year Escalation 8
  1.0314,                                 !- Year Escalation 9
  1.0554,                                 !- Year Escalation 10
  1.0861,                                 !- Year Escalation 11
  1.1278,                                 !- Year Escalation 12
  1.1497,                                 !- Year Escalation 13
  1.1620,                                 !- Year Escalation 14
  1.1743,                                 !- Year Escalation 15
  1.1852,                                 !- Year Escalation 16
  1.1948,                                 !- Year Escalation 17
  1.2037,                                 !- Year Escalation 18
  1.2071,                                 !- Year Escalation 19
  1.2119,                                 !- Year Escalation 20
  1.2139,                                 !- Year Escalation 21
  1.2194,                                 !- Year Escalation 22
  1.2276,                                 !- Year Escalation 23
  1.2365,                                 !- Year Escalation 24
  1.2420,                                 !- Year Escalation 25
  1.2461,                                 !- Year Escalation 26
  1.2509,                                 !- Year Escalation 27
  1.2550,                                 !- Year Escalation 28
  1.2591,                                 !- Year Escalation 29
  1.2638;                                 !- Year Escalation 30

LifeCycleCost:UsePriceEscalation,
  U.S. Avg  Commercial-Natural gas,       !- Name
  NaturalGas,                             !- Resource
  2011,                                   !- Escalation Start Year
  January,                                !- Escalation Start Month
  0.9823,                                 !- Year Escalation 1
  0.9557,                                 !- Year Escalation 2
  0.9279,                                 !- Year Escalation 3
  0.9257,                                 !- Year Escalation 4
  0.9346,                                 !- Year Escalation 5
  0.9412,                                 !- Year Escalation 6
  0.9512,                                 !- Year Escalation 7
  0.9645,                                 !- Year Escalation 8
  0.9856,                                 !- Year Escalation 9
  1.0067,                                 !- Year Escalation 10
  1.0222,                                 !- Year Escalation 11
  1.0410,                                 !- Year Escalation 12
  1.0610,                                 !- Year Escalation 13
  1.0787,                                 !- Year Escalation 14
  1.0942,                                 !- Year Escalation 15
  1.1098,                                 !- Year Escalation 16
  1.1220,                                 !- Year Escalation 17
  1.1308,                                 !- Year Escalation 18
  1.1386,                                 !- Year Escalation 19
  1.1486,                                 !- Year Escalation 20
  1.1619,                                 !- Year Escalation 21
  1.1763,                                 !- Year Escalation 22
  1.1918,                                 !- Year Escalation 23
  1.2118,                                 !- Year Escalation 24
  1.2284,                                 !- Year Escalation 25
  1.2439,                                 !- Year Escalation 26
  1.2605,                                 !- Year Escalation 27
  1.2772,                                 !- Year Escalation 28
  1.2938,                                 !- Year Escalation 29
  1.3115;                                 !- Year Escalation 30

LifeCycleCost:UsePriceEscalation,
  U.S. Avg  Commercial-Coal,              !- Name
  Coal,                                   !- Resource
  2011,                                   !- Escalation Start Year
  January,                                !- Escalation Start Month
  0.9970,                                 !- Year Escalation 1
  1.0089,                                 !- Year Escalation 2
  1.0089,                                 !- Year Escalation 3
  0.9941,                                 !- Year Escalation 4
  0.9941,                                 !- Year Escalation 5
  1.0000,                                 !- Year Escalation 6
  1.0030,                                 !- Year Escalation 7
  1.0059,                                 !- Year Escalation 8
  1.0089,                                 !- Year Escalation 9
  1.0119,                                 !- Year Escalation 10
  1.0148,                                 !- Year Escalation 11
  1.0178,                                 !- Year Escalation 12
  1.0208,                                 !- Year Escalation 13
  1.0267,                                 !- Year Escalation 14
  1.0297,                                 !- Year Escalation 15
  1.0356,                                 !- Year Escalation 16
  1.0415,                                 !- Year Escalation 17
  1.0534,                                 !- Year Escalation 18
  1.0564,                                 !- Year Escalation 19
  1.0593,                                 !- Year Escalation 20
  1.0653,                                 !- Year Escalation 21
  1.0712,                                 !- Year Escalation 22
  1.0742,                                 !- Year Escalation 23
  1.0801,                                 !- Year Escalation 24
  1.0831,                                 !- Year Escalation 25
  1.0831,                                 !- Year Escalation 26
  1.0861,                                 !- Year Escalation 27
  1.0890,                                 !- Year Escalation 28
  1.0920,                                 !- Year Escalation 29
  1.0950;                                 !- Year Escalation 30

Building,
  Model for 229 Test Cases,               !- Name
  0,                                      !- North Axis {deg}
  City,                                   !- Terrain
  0.04,                                   !- Loads Convergence Tolerance Value {W}
  0.2,                                    !- Temperature Convergence Tolerance Value {deltaC}
  FullInteriorAndExterior,                !- Solar Distribution
  25,                                     !- Maximum Number of Warmup Days
  6;                                      !- Minimum Number of Warmup Days

Zone,
  Core Zone 1,                            !- Name
  0,                                      !- Direction of Relative North {deg}
  0,                                      !- X Origin {m}
  0,                                      !- Y Origin {m}
  0,                                      !- Z Origin {m}
  ,                                       !- Type
  1,                                      !- Multiplier
  3.96,                                   !- Ceiling Height {m}
  ,                                       !- Volume {m3}
  ,                                       !- Floor Area {m2}
  ,                                       !- Zone Inside Convection Algorithm
  ,                                       !- Zone Outside Convection Algorithm
  Yes;                                    !- Part of Total Floor Area

Space,
  Core_Space_1,                           !- Name
  Core Zone 1,                            !- Zone Name
  ,                                       !- Ceiling Height {m}
  ,                                       !- Volume {m3}
  ;                                       !- Floor Area {m2}

BuildingSurface:Detailed,
  Core_Zone_1_Ceiling,                    !- Name
  Roof,                                   !- Surface Type
  Roof Type 1,                            !- Construction Name
  Core Zone 1,                            !- Zone Name
  Core_Space_1,                           !- Space Name
  Outdoors,                               !- Outside Boundary Condition
  ,                                       !- Outside Boundary Condition Object
  SunExposed,                             !- Sun Exposure
  WindExposed,                            !- Wind Exposure
  0,                                      !- View Factor to Ground
  ,                                       !- Number of Vertices
  45.3238, 4.5732, 3.9624,                !- X,Y,Z Vertex 1 {m}
  45.3238, 28.7122, 3.9624,               !- X,Y,Z Vertex 2 {m}
  4.5732, 28.7122, 3.9624,                !- X,Y,Z Vertex 3 {m}
  4.5732, 4.5732, 3.9624;                 !- X,Y,Z Vertex 4 {m}

BuildingSurface:Detailed,
  Core_Zone_5_Floor,                      !- Name
  Floor,                                  !- Surface Type
  Slab-on-grade Type 1,                   !- Construction Name
  Core Zone 1,                            !- Zone Name
  Core_Space_1,                           !- Space Name
  Ground,                                 !- Outside Boundary Condition
  ,                                       !- Outside Boundary Condition Object
  NoSun,                                  !- Sun Exposure
  NoWind,                                 !- Wind Exposure
  ,                                       !- View Factor to Ground
  ,                                       !- Number of Vertices
  45.3238, 28.7122, 0,                    !- X,Y,Z Vertex 1 {m}
  45.3238, 4.5732, 0,                     !- X,Y,Z Vertex 2 {m}
  4.5732, 4.5732, 0,                      !- X,Y,Z Vertex 3 {m}
  4.5732, 28.7122, 0;                     !- X,Y,Z Vertex 4 {m}

BuildingSurface:Detailed,
  Core_Zone_5_Wall_East,                  !- Name
  Wall,                                   !- Surface Type
  Interior Wall,                          !- Construction Name
  Core Zone 1,                            !- Zone Name
  Core_Space_1,                           !- Space Name
  Surface,                                !- Outside Boundary Condition
  Core_Zone_5_Wall_East Reversed,         !- Outside Boundary Condition Object
  NoSun,                                  !- Sun Exposure
  NoWind,                                 !- Wind Exposure
  ,                                       !- View Factor to Ground
  ,                                       !- Number of Vertices
  45.3238, 4.5732, 3.9624,                !- X,Y,Z Vertex 1 {m}
  45.3238, 4.5732, 0,                     !- X,Y,Z Vertex 2 {m}
  45.3238, 28.7122, 0,                    !- X,Y,Z Vertex 3 {m}
  45.3238, 28.7122, 3.9624;               !- X,Y,Z Vertex 4 {m}

BuildingSurface:Detailed,
  Core_Zone_5_Wall_North,                 !- Name
  Wall,                                   !- Surface Type
  Interior Wall,                          !- Construction Name
  Core Zone 1,                            !- Zone Name
  Core_Space_1,                           !- Space Name
  Surface,                                !- Outside Boundary Condition
  Core_Zone_5_Wall_North Reversed,        !- Outside Boundary Condition Object
  NoSun,                                  !- Sun Exposure
  NoWind,                                 !- Wind Exposure
  ,                                       !- View Factor to Ground
  ,                                       !- Number of Vertices
  45.3238, 28.7122, 3.9624,               !- X,Y,Z Vertex 1 {m}
  45.3238, 28.7122, 0,                    !- X,Y,Z Vertex 2 {m}
  4.5732, 28.7122, 0,                     !- X,Y,Z Vertex 3 {m}
  4.5732, 28.7122, 3.9624;                !- X,Y,Z Vertex 4 {m}

BuildingSurface:Detailed,
  Core_Zone_5_Wall_South,                 !- Name
  Wall,                                   !- Surface Type
  Interior Wall,                          !- Construction Name
  Core Zone 1,                            !- Zone Name
  Core_Space_1,                           !- Space Name
  Surface,                                !- Outside Boundary Condition
  Core_Zone_5_Wall_South Reversed,        !- Outside Boundary Condition Object
  NoSun,                                  !- Sun Exposure
  NoWind,                                 !- Wind Exposure
  ,                                       !- View Factor to Ground
  ,                                       !- Number of Vertices
  4.5732, 4.5732, 3.9624,                 !- X,Y,Z Vertex 1 {m}
  4.5732, 4.5732, 0,                      !- X,Y,Z Vertex 2 {m}
  45.3238, 4.5732, 0,                     !- X,Y,Z Vertex 3 {m}
  45.3238, 4.5732, 3.9624;                !- X,Y,Z Vertex 4 {m}

BuildingSurface:Detailed,
  Core_Zone_5_Wall_West,                  !- Name
  Wall,                                   !- Surface Type
  Interior Wall,                          !- Construction Name
  Core Zone 1,                            !- Zone Name
  Core_Space_1,                           !- Space Name
  Surface,                                !- Outside Boundary Condition
  Core_Zone_5_Wall_West Reversed,         !- Outside Boundary Condition Object
  NoSun,                                  !- Sun Exposure
  NoWind,                                 !- Wind Exposure
  ,                                       !- View Factor to Ground
  ,                                       !- Number of Vertices
  4.5732, 28.7122, 3.9624,                !- X,Y,Z Vertex 1 {m}
  4.5732, 28.7122, 0,                     !- X,Y,Z Vertex 2 {m}
  4.5732, 4.5732, 0,                      !- X,Y,Z Vertex 3 {m}
  4.5732, 4.5732, 3.9624;                 !- X,Y,Z Vertex 4 {m}

InternalMass,
  Core_bottom Internal Mass,              !- Name
  Interior Furnishings,                   !- Construction Name
  Core Zone 1,                            !- Zone or ZoneList Name
  Core_Space_1,                           !- Space or SpaceList Name
  1967.31477504;                          !- Surface Area {m2}

Lights,
  Core_bottom Lighting,                   !- Name
  Core_Space_1,                           !- Zone or ZoneList or Space or SpaceList Name
  Core_Space_Lighting_Sch,                !- Schedule Name
  Watts/Area,                             !- Design Level Calculation Method
  ,                                       !- Lighting Level {W}
  11.0330081771275,                       !- Watts per Floor Area {W/m2}
  ,                                       !- Watts per Person {W/person}
  0,                                      !- Return Air Fraction
  0.7,                                    !- Fraction Radiant
  0.2,                                    !- Fraction Visible
  1,                                      !- Fraction Replaceable
  GeneralLights;                          !- End-Use Subcategory

Schedule:Compact,
  Core_Space_Lighting_Sch,                !- Name
  Unit Interval,                          !- Schedule Type Limits Name
  Through: 12/31,                         !- Field 1
  For: Weekdays,                          !- Field 2
  Until: 5:00,                            !- Field 3
  0.05,                                   !- Field 4
  Until: 6:00,                            !- Field 5
  0.1,                                    !- Field 6
  Until: 7:00,                            !- Field 7
  0.08623256,                             !- Field 8
  Until: 8:00,                            !- Field 9
  0.25869768,                             !- Field 10
  Until: 17:00,                           !- Field 11
  0.77609304,                             !- Field 12
  Until: 18:00,                           !- Field 13
  0.4311628,                              !- Field 14
  Until: 20:00,                           !- Field 15
  0.25869768,                             !- Field 16
  Until: 22:00,                           !- Field 17
  0.17246512,                             !- Field 18
  Until: 23:00,                           !- Field 19
  0.08623256,                             !- Field 20
  Until: 24:00,                           !- Field 21
  0.04311628,                             !- Field 22
  For: SummerDesignDay,                   !- Field 23
  Until: 24:00,                           !- Field 24
  1.0,                                    !- Field 25
  For: Saturday,                          !- Field 26
  Until: 6:00,                            !- Field 27
  0.05,                                   !- Field 28
  Until: 8:00,                            !- Field 29
  0.08623256,                             !- Field 30
  Until: 12:00,                           !- Field 31
  0.25869768,                             !- Field 32
  Until: 17:00,                           !- Field 33
  0.12934884,                             !- Field 34
  Until: 19:00,                           !- Field 35
  0.04311628,                             !- Field 36
  Until: 24:00,                           !- Field 37
  0.05,                                   !- Field 38
  For: WinterDesignDay,                   !- Field 39
  Until: 24:00,                           !- Field 40
  0.0,                                    !- Field 41
  For: Sunday Holidays AllOtherDays,      !- Field 42
  Until: 6:00,                            !- Field 43
  0.05,                                   !- Field 44
  Until: 18:00,                           !- Field 45
  0.04311628,                             !- Field 46
  Until: 24:00,                           !- Field 47
  0.05;                                   !- Field 48

ScheduleTypeLimits,
  Unit Interval,                          !- Name
  0,                                      !- Lower Limit Value {BasedOnField A3}
  1,                                      !- Upper Limit Value {BasedOnField A3}
  Continuous,                             !- Numeric Type
  dimensionless;                          !- Unit Type

People,
  Core_bottom People,                     !- Name
  Core_Space_1,                           !- Zone or ZoneList or Space or SpaceList Name
  Core_Space Occupant Sch,                !- Number of People Schedule Name
  People/Area,                            !- Number of People Calculation Method
  ,                                       !- Number of People
  0.0538195520835486,                     !- People per Floor Area {person/m2}
  ,                                       !- Floor Area per Person {m2/person}
  0.3,                                    !- Fraction Radiant
  0.55,                                   !- Sensible Heat Fraction
  People heating rate;                    !- Activity Level Schedule Name

Schedule:Compact,
  Core_Space Occupant Sch,                !- Name
  Unit Interval,                          !- Schedule Type Limits Name
  Through: 12/31,                         !- Field 1
  For: Weekdays,                          !- Field 2
  Until: 06:00,                           !- Field 3
  0.0,                                    !- Field 4
  Until: 07:00,                           !- Field 5
  0.1,                                    !- Field 6
  Until: 08:00,                           !- Field 7
  0.2,                                    !- Field 8
  Until: 10:00,                           !- Field 9
  0.95,                                   !- Field 10
  Until: 11:00,                           !- Field 11
  0.975703226795432,                      !- Field 12
  Until: 12:00,                           !- Field 13
  0.95,                                   !- Field 14
  Until: 13:00,                           !- Field 15
  0.513528014102859,                      !- Field 16
  Until: 14:00,                           !- Field 17
  0.95,                                   !- Field 18
  Until: 15:00,                           !- Field 19
  0.975703226795432,                      !- Field 20
  Until: 17:00,                           !- Field 21
  0.95,                                   !- Field 22
  Until: 18:00,                           !- Field 23
  0.3,                                    !- Field 24
  Until: 22:00,                           !- Field 25
  0.1,                                    !- Field 26
  Until: 23:00,                           !- Field 27
  0.05,                                   !- Field 28
  Until: 24:00,                           !- Field 29
  0.05,                                   !- Field 30
  For: Saturday,                          !- Field 31
  Until: 06:00,                           !- Field 32
  0.0,                                    !- Field 33
  Until: 07:00,                           !- Field 34
  0.1,                                    !- Field 35
  Until: 08:00,                           !- Field 36
  0.1,                                    !- Field 37
  Until: 10:00,                           !- Field 38
  0.3,                                    !- Field 39
  Until: 11:00,                           !- Field 40
  0.308116808461715,                      !- Field 41
  Until: 12:00,                           !- Field 42
  0.3,                                    !- Field 43
  Until: 13:00,                           !- Field 44
  0.102705602820572,                      !- Field 45
  Until: 14:00,                           !- Field 46
  0.1,                                    !- Field 47
  Until: 15:00,                           !- Field 48
  0.102705602820572,                      !- Field 49
  Until: 17:00,                           !- Field 50
  0.1,                                    !- Field 51
  Until: 18:00,                           !- Field 52
  0.05,                                   !- Field 53
  Until: 19:00,                           !- Field 54
  0.05,                                   !- Field 55
  Until: 24:00,                           !- Field 56
  0.0,                                    !- Field 57
  For: SummerDesignDay,                   !- Field 58
  Until: 06:00,                           !- Field 59
  1e-9,                                   !- Field 60
  Until: 22:00,                           !- Field 61
  1.0,                                    !- Field 62
  Until: 24:00,                           !- Field 63
  0.05,                                   !- Field 64
  For: WinterDesignDay,                   !- Field 65
  Until: 24:00,                           !- Field 66
  0.0,                                    !- Field 67
  For:Sunday Holidays AllOtherDays,       !- Field 68
  Until: 06:00,                           !- Field 69
  0.0,                                    !- Field 70
  Until: 18:00,                           !- Field 71
  0.05,                                   !- Field 72
  Until: 24:00,                           !- Field 73
  0.0;                                    !- Field 74

Schedule:Constant,
  People heating rate,                    !- Name
  ActivityLevel,                          !- Schedule Type Limits Name
  120;                                    !- Hourly Value

ElectricEquipment,
  Core_bottom Elec Equip,                 !- Name
  Core_Space_1,                           !- Zone or ZoneList or Space or SpaceList Name
  Core_Space_Elec_Equip_Sch,              !- Schedule Name
  Watts/Area,                             !- Design Level Calculation Method
  ,                                       !- Design Level {W}
  8.07,                                   !- Watts per Floor Area {W/m2}
  ,                                       !- Watts per Person {W/person}
  0,                                      !- Fraction Latent
  0.2,                                    !- Fraction Radiant
  0,                                      !- Fraction Lost
  GeneralEquipment;                       !- End-Use Subcategory

Schedule:Compact,
  Core_Space_Elec_Equip_Sch,              !- Name
  Unit Interval,                          !- Schedule Type Limits Name
  Through: 12/31,                         !- Field 1
  For: Weekdays,                          !- Field 2
  Until: 06:00,                           !- Field 3
  0.3076738408,                           !- Field 4
  Until: 08:00,                           !- Field 5
  0.381234796,                            !- Field 6
  Until: 12:00,                           !- Field 7
  0.857778291,                            !- Field 8