
OS:Version,
  {74d696d4-d0aa-4460-b501-e0a565437d78}, !- Handle
  3.7.0;                                  !- Version Identifier

OS:Material,
  {f0ad4c67-6f66-408c-8c99-31f19b5a1c02}, !- Handle
  aim0043,                                !- Name
  MediumRough,                            !- Roughness
  0.017769,                               !- Thickness {m}
  0.11544,                                !- Conductivity {W/m-K}
  512.64,                                 !- Density {kg/m3}
  1256.04,                                !- Specific Heat {J/kg-K}
  0.7;                                    !- Thermal Absorptance

OS:AdditionalProperties,
  {3503dafc-0656-4097-b4b8-d8bddbe670b2}, !- Handle
  {f0ad4c67-6f66-408c-8c99-31f19b5a1c02}, !- Object Name
  gbXMLId,                                !- Feature Name 1
  String,                                 !- Feature Data Type 1
  aim0043,                                !- Feature Value 1
  displayName,                            !- Feature Name 2
  String,                                 !- Feature Data Type 2
  Wood shingle  (WS01);                   !- Feature Value 2

OS:Material:NoMass,
  {20380d3d-55de-4db7-b925-6129fa610536}, !- Handle
  aim0050,                                !- Name
  Smooth,                                 !- Roughness
  0.01057;                                !- Thermal Resistance {m2-K/W}

OS:AdditionalProperties,
  {57e9846f-eed1-41a2-9e89-41e75565d07a}, !- Handle
  {20380d3d-55de-4db7-b925-6129fa610536}, !- Object Name
  gbXMLId,                                !- Feature Name 1
  String,                                 !- Feature Data Type 1
  aim0050,                                !- Feature Value 1
  displayName,                            !- Feature Name 2
  String,                                 !- Feature Data Type 2
  Bldg paper felt  (BP01);                !- Feature Value 2

OS:Material,
  {1ce9174b-eb75-437a-8630-fdc313d3e708}, !- Handle
  aim0054,                                !- Name
  MediumRough,                            !- Roughness
  0.019049,                               !- Thickness {m}
  0.11544,                                !- Conductivity {W/m-K}
  512.64,                                 !- Density {kg/m3}
  1381.644;                               !- Specific Heat {J/kg-K}

OS:AdditionalProperties,
  {7bdf951e-3ba5-4ce4-8f65-99a71354be69}, !- Handle
  {1ce9174b-eb75-437a-8630-fdc313d3e708}, !- Object Name
  gbXMLId,                                !- Feature Name 1
  String,                                 !- Feature Data Type 1
  aim0054,                                !- Feature Value 1
  displayName,                            !- Feature Name 2
  String,                                 !- Feature Data Type 2
  Wood Sft 3/4 in  (WD01);                !- Feature Value 2

OS:Material,
  {3276ef75-85a4-4969-8a43-2cdf24f644ed}, !- Handle
  aim0061,                                !- Name
  MediumRough,                            !- Roughness
  0.1016,                                 !- Thickness {m}
  0.06227,                                !- Conductivity {W/m-K}
  129.9,                                  !- Density {kg/m3}
  962.3;                                  !- Specific Heat {J/kg-K}

OS:AdditionalProperties,
  {83afbbd2-bcf2-48d2-b9d4-264eb7e77ac5}, !- Handle
  {3276ef75-85a4-4969-8a43-2cdf24f644ed}, !- Object Name
  gbXMLId,                                !- Feature Name 1
  String,                                 !- Feature Data Type 1
  aim0061,                                !- Feature Value 1
  displayName,                            !- Feature Name 2
  String,                                 !- Feature Data Type 2
  Minwool batt R13 w/ 2x4 frame;          !- Feature Value 2

OS:Material,
  {942d0ed2-63c1-4b1d-bdfb-3e0b36a5784b}, !- Handle
  aim0068,                                !- Name
  MediumRough,                            !- Roughness
  0.015879,                               !- Thickness {m}
  0.160266,                               !- Conductivity {W/m-K}
  801,                                    !- Density {kg/m3}
  837.36,                                 !- Specific Heat {J/kg-K}
  0.7;                                    !- Thermal Absorptance

OS:AdditionalProperties,
  {af9e971b-c7ab-41a1-af2b-558278ed2ed5}, !- Handle
  {942d0ed2-63c1-4b1d-bdfb-3e0b36a5784b}, !- Object Name
  gbXMLId,                                !- Feature Name 1
  String,                                 !- Feature Data Type 1
  aim0068,                                !- Feature Value 1
  displayName,                            !- Feature Name 2
  String,                                 !- Feature Data Type 2
  GypBd 5/8 in  (GP02);                   !- Feature Value 2

OS:Material:NoMass,
  {4f2cecaf-d0a1-4c35-bea2-0cff6837a539}, !- Handle
  aim0082,                                !- Name
  Smooth,                                 !- Roughness
  0.10919;                                !- Thermal Resistance {m2-K/W}

OS:AdditionalProperties,
  {398ca444-a755-41f1-a69c-63aa201270f0}, !- Handle
  {4f2cecaf-d0a1-4c35-bea2-0cff6837a539}, !- Object Name
  gbXMLId,                                !- Feature Name 1
  String,                                 !- Feature Data Type 1
  aim0082,                                !- Feature Value 1
  displayName,                            !- Feature Name 2
  String,                                 !- Feature Data Type 2
  Air space;                              !- Feature Value 2

OS:Material,
  {10ba9bde-f947-445d-a998-c5cd7bcbfe7c}, !- Handle
  aim0093,                                !- Name
  MediumRough,                            !- Roughness
  0.00954,                                !- Thickness {m}
  0.162516,                               !- Conductivity {W/m-K}
  1121.4,                                 !- Density {kg/m3}
  1465.38,                                !- Specific Heat {J/kg-K}
  0.3;                                    !- Thermal Absorptance

OS:AdditionalProperties,
  {010a8925-94ad-4887-a14f-b93d8da53e82}, !- Handle
  {10ba9bde-f947-445d-a998-c5cd7bcbfe7c}, !- Object Name
  gbXMLId,                                !- Feature Name 1
  String,                                 !- Feature Data Type 1
  aim0093,                                !- Feature Value 1
  displayName,                            !- Feature Name 2
  String,                                 !- Feature Data Type 2
  Blt-Up roof 3/8 in  (BR01);             !- Feature Value 2

OS:Material,
  {f880d402-328f-49cf-8fc3-739edfe28e45}, !- Handle
  aim0101,                                !- Name
  MediumRough,                            !- Roughness
  0.076196,                               !- Thickness {m}
  0.041538,                               !- Conductivity {W/m-K}
  240.3,                                  !- Density {kg/m3}
  711.756;                                !- Specific Heat {J/kg-K}

OS:AdditionalProperties,
  {2e0c7591-d8f9-4b9a-b4d8-302f36853ed2}, !- Handle
  {f880d402-328f-49cf-8fc3-739edfe28e45}, !- Object Name
  gbXMLId,                                !- Feature Name 1
  String,                                 !- Feature Data Type 1
  aim0101,                                !- Feature Value 1
  displayName,                            !- Feature Name 2
  String,                                 !- Feature Data Type 2
  MinBd 3 in R-10.4  (IN24);              !- Feature Value 2

OS:Material,
  {13317015-d056-4509-925b-1bc4fa60651b}, !- Handle
  aim0114,                                !- Name
  MediumRough,                            !- Roughness
  0.0376,                                 !- Thickness {m}
  0.15,                                   !- Conductivity {W/m-K}
  608,                                    !- Density {kg/m3}
  1630;                                   !- Specific Heat {J/kg-K}

OS:AdditionalProperties,
  {1023782f-7447-49af-a41e-f68024c16fca}, !- Handle
  {13317015-d056-4509-925b-1bc4fa60651b}, !- Object Name
  gbXMLId,                                !- Feature Name 1
  String,                                 !- Feature Data Type 1
  aim0114,                                !- Feature Value 1
  displayName,                            !- Feature Name 2
  String,                                 !- Feature Data Type 2
  1 1/2 in wood;                          !- Feature Value 2

OS:Material,
  {8c21e12f-ab4c-45cd-a866-0ca44666e75f}, !- Handle
  aim0125,                                !- Name
  MediumRough,                            !- Roughness
  0.1,                                    !- Thickness {m}
  1.9,                                    !- Conductivity {W/m-K}
  2300,                                   !- Density {kg/m3}
  840;                                    !- Specific Heat {J/kg-K}

OS:AdditionalProperties,
  {46b4723d-ff81-4581-a8f6-785db2000fa3}, !- Handle
  {8c21e12f-ab4c-45cd-a866-0ca44666e75f}, !- Object Name
  gbXMLId,                                !- Feature Name 1
  String,                                 !- Feature Data Type 1
  aim0125,                                !- Feature Value 1
  displayName,                            !- Feature Name 2
  String,                                 !- Feature Data Type 2
  Concrete cast dense reinforced;         !- Feature Value 2

OS:Material:NoMass,
  {3dfc34df-ff17-43ba-b69a-e666ce9a6be0}, !- Handle
  aim0137,                                !- Name
  Smooth,                                 !- Roughness
  5.28331;                                !- Thermal Resistance {m2-K/W}

OS:AdditionalProperties,
  {64d87229-48c6-42b0-8433-6395d7a20aec}, !- Handle
  {3dfc34df-ff17-43ba-b69a-e666ce9a6be0}, !- Object Name
  gbXMLId,                                !- Feature Name 1
  String,                                 !- Feature Data Type 1
  aim0137,                                !- Feature Value 1
  displayName,                            !- Feature Name 2
  String,                                 !- Feature Data Type 2
  UG surface fictitious insulation;       !- Feature Value 2

OS:Material,
  {73265c2c-cfd2-41a4-9bfd-4f54d29acf23}, !- Handle
  aim0141,                                !- Name
  MediumRough,                            !- Roughness
  0.204206,                               !- Thickness {m}
  1.730735,                               !- Conductivity {W/m-K}
  1842.3,                                 !- Density {kg/m3}
  837.36;                                 !- Specific Heat {J/kg-K}

OS:AdditionalProperties,
  {a8edec19-ac1f-4df9-9171-298f6b5547ef}, !- Handle
  {73265c2c-cfd2-41a4-9bfd-4f54d29acf23}, !- Object Name
  gbXMLId,                                !- Feature Name 1
  String,                                 !- Feature Data Type 1
  aim0141,                                !- Feature Value 1
  displayName,                            !- Feature Name 2
  String,                                 !- Feature Data Type 2
  Soil 8 in;                              !- Feature Value 2

OS:Material,
  {16dc19ad-b99f-4e85-b035-d1c1c1d7467d}, !- Handle
  aim0148,                                !- Name
  MediumRough,                            !- Roughness
  0.2032,                                 !- Thickness {m}
  1.311205,                               !- Conductivity {W/m-K}
  2242.8,                                 !- Density {kg/m3}
  837.36;                                 !- Specific Heat {J/kg-K}

OS:AdditionalProperties,
  {745a21c9-1360-4e16-a234-88e1649cd7cb}, !- Handle
  {16dc19ad-b99f-4e85-b035-d1c1c1d7467d}, !- Object Name
  gbXMLId,                                !- Feature Name 1
  String,                                 !- Feature Data Type 1
  aim0148,                                !- Feature Value 1
  displayName,                            !- Feature Name 2
  String,                                 !- Feature Data Type 2
  Conc heavyweight 140lb 8 in  (CC05);    !- Feature Value 2

OS:Material:NoMass,
  {fc22c25e-fe4d-4feb-8b9e-3040d2d99a0a}, !- Handle
  aim0155,                                !- Name
  Smooth,                                 !- Roughness
  0.36631;                                !- Thermal Resistance {m2-K/W}

OS:AdditionalProperties,
  {dda2206e-5038-48c6-a187-80d148da4c5b}, !- Handle
  {fc22c25e-fe4d-4feb-8b9e-3040d2d99a0a}, !- Object Name
  gbXMLId,                                !- Feature Name 1
  String,                                 !- Feature Data Type 1
  aim0155,                                !- Feature Value 1
  displayName,                            !- Feature Name 2
  String,                                 !- Feature Data Type 2
  Carpet fiber pad  (CP01);               !- Feature Value 2

OS:Construction,
  {a9ee73dd-80cb-460c-b81f-c27fc8cfeacd}, !- Handle
  aim0038,                                !- Name
  {f0015a13-4626-4080-b0f8-02c17a9a640b}, !- Surface Rendering Name
  {f0ad4c67-6f66-408c-8c99-31f19b5a1c02}, !- Layer 1
  {20380d3d-55de-4db7-b925-6129fa610536}, !- Layer 2
  {1ce9174b-eb75-437a-8630-fdc313d3e708}, !- Layer 3
  {3276ef75-85a4-4969-8a43-2cdf24f644ed}, !- Layer 4
  {942d0ed2-63c1-4b1d-bdfb-3e0b36a5784b}; !- Layer 5

OS:AdditionalProperties,
  {8fa16f6e-2981-4f6c-b02e-018163c1f369}, !- Handle
  {a9ee73dd-80cb-460c-b81f-c27fc8cfeacd}, !- Object Name
  gbXMLId,                                !- Feature Name 1
  String,                                 !- Feature Data Type 1
  aim0038,                                !- Feature Value 1
  displayName,                            !- Feature Name 2
  String,                                 !- Feature Data Type 2
  R-13 wood frame wall;                   !- Feature Value 2

OS:Construction,
  {f2d602d5-c74a-44c3-8a38-3cf8d02f820e}, !- Handle
  aim0076,                                !- Name
  {7c22c98f-63d1-412f-9c2b-4ccefe8d8df7}, !- Surface Rendering Name
  {942d0ed2-63c1-4b1d-bdfb-3e0b36a5784b}, !- Layer 1
  {4f2cecaf-d0a1-4c35-bea2-0cff6837a539}, !- Layer 2
  {942d0ed2-63c1-4b1d-bdfb-3e0b36a5784b}; !- Layer 3

OS:AdditionalProperties,
  {7e490df2-fac0-4f38-a1c1-5dafb5862f1e}, !- Handle
  {f2d602d5-c74a-44c3-8a38-3cf8d02f820e}, !- Object Name
  gbXMLId,                                !- Feature Name 1
  String,                                 !- Feature Data Type 1
  aim0076,                                !- Feature Value 1
  displayName,                            !- Feature Name 2
  String,                                 !- Feature Data Type 2
  R-0 metal frame wall;                   !- Feature Value 2

OS:Construction,
  {7a16a8c5-d20c-49f8-b7e8-a1618266a158}, !- Handle
  aim0088,                                !- Name
  {a0d96a33-88a0-40a6-9e6b-2b361f48ae0d}, !- Surface Rendering Name
  {10ba9bde-f947-445d-a998-c5cd7bcbfe7c}, !- Layer 1
  {20380d3d-55de-4db7-b925-6129fa610536}, !- Layer 2
  {f880d402-328f-49cf-8fc3-739edfe28e45}, !- Layer 3
  {f880d402-328f-49cf-8fc3-739edfe28e45}, !- Layer 4
  {1ce9174b-eb75-437a-8630-fdc313d3e708}; !- Layer 5

OS:AdditionalProperties,
  {0720d974-4d97-4bfa-9805-a8def14058dc}, !- Handle
  {7a16a8c5-d20c-49f8-b7e8-a1618266a158}, !- Object Name
  gbXMLId,                                !- Feature Name 1
  String,                                 !- Feature Data Type 1
  aim0088,                                !- Feature Value 1
  displayName,                            !- Feature Name 2
  String,                                 !- Feature Data Type 2
  R-20 over roof deck - cool roof;        !- Feature Value 2

OS:Construction,
  {20c949ec-9217-4ed1-be07-ceba7d30bd1c}, !- Handle
  aim0111,                                !- Name
  {6a0c85b1-66f8-45ad-b3bf-38f633867b2f}, !- Surface Rendering Name
  {13317015-d056-4509-925b-1bc4fa60651b}; !- Layer 1

OS:AdditionalProperties,
  {6842f7ca-5b9a-42bc-b77b-35666a7b915a}, !- Handle
  {20c949ec-9217-4ed1-be07-ceba7d30bd1c}, !- Object Name
  gbXMLId,                                !- Feature Name 1
  String,                                 !- Feature Data Type 1
  aim0111,                                !- Feature Value 1
  displayName,                            !- Feature Name 2
  String,                                 !- Feature Data Type 2
  Wooden;                                 !- Feature Value 2

OS:Construction,
  {e23b6b63-f797-4016-b18a-65d572ccf474}, !- Handle
  aim0122,                                !- Name
  {0082190c-b04a-4be2-bee0-17dcde50bb07}, !- Surface Rendering Name
  {8c21e12f-ab4c-45cd-a866-0ca44666e75f}; !- Layer 1

OS:AdditionalProperties,
  {076c2c0d-4456-4564-9b3f-40a87c34c39d}, !- Handle
  {e23b6b63-f797-4016-b18a-65d572ccf474}, !- Object Name
  gbXMLId,                                !- Feature Name 1
  String,                                 !- Feature Data Type 1
  aim0122,                                !- Feature Value 1
  displayName,                            !- Feature Name 2
  String,                                 !- Feature Data Type 2
  4 in reinforced-concrete ceiling;       !- Feature Value 2

OS:Construction,
  {5fed8855-cf1f-4498-9fdf-fb75105389ae}, !- Handle
  aim0133,                                !- Name
  {e3922f65-71eb-451e-a1c3-2d9c570607cf}, !- Surface Rendering Name
  {3dfc34df-ff17-43ba-b69a-e666ce9a6be0}, !- Layer 1
  {73265c2c-cfd2-41a4-9bfd-4f54d29acf23}, !- Layer 2
  {16dc19ad-b99f-4e85-b035-d1c1c1d7467d}, !- Layer 3
  {fc22c25e-fe4d-4feb-8b9e-3040d2d99a0a}; !- Layer 4

OS:AdditionalProperties,
  {664a8f76-b4ed-4715-8136-6e062c652586}, !- Handle
  {5fed8855-cf1f-4498-9fdf-fb75105389ae}, !- Object Name
  gbXMLId,                                !- Feature Name 1
  String,                                 !- Feature Data Type 1
  aim0133,                                !- Feature Value 1
  displayName,                            !- Feature Name 2
  String,                                 !- Feature Data Type 2
  Slab edge uninsulated;                  !- Feature Value 2

OS:Construction,
  {37b8dded-61cf-4abb-90bb-cad538b58555}, !- Handle
  aim0160,                                !- Name
  {74a22393-4620-4caa-b7ee-db817abd379f}, !- Surface Rendering Name
  {a66d79a9-266a-4122-ac4c-ee8c2e9b449a}; !- Layer 1

OS:AdditionalProperties,
  {47830fac-8caa-4ca4-a351-486fb452d160}, !- Handle
  {37b8dded-61cf-4abb-90bb-cad538b58555}, !- Object Name
  gbXMLId,                                !- Feature Name 1
  String,                                 !- Feature Data Type 1
  aim0160,                                !- Feature Value 1
  displayName,                            !- Feature Name 2
  String,                                 !- Feature Data Type 2
  Pilkington RW33 double glazing (1/4 in + 1/4 in); !- Feature Value 2

OS:WindowMaterial:SimpleGlazingSystem,
  {a66d79a9-266a-4122-ac4c-ee8c2e9b449a}, !- Handle
  {4de43f8f-6d74-45b3-9a6c-3246708d659a}, !- Name
  2.8566,                                 !- U-Factor {W/m2-K}
  0.76,                                   !- Solar Heat Gain Coefficient
  0.81;                                   !- Visible Transmittance

OS:YearDescription,
  {e01cd119-0974-4b5a-88ce-635e582eb46d}, !- Handle
  ,                                       !- Calendar Year
  Sunday,                                 !- Day of Week for Start Day
  ;                                       !- Is Leap Year

OS:ThermalZone,
  {97623f48-f40f-4d78-8348-10ee142978c7}, !- Handle
  AS1VAV1-1,                              !- Name
  ,                                       !- Multiplier
  ,                                       !- Ceiling Height {m}
  3643.91167711056,                       !- Volume {m3}
  ,                                       !- Floor Area {m2}
  ,                                       !- Zone Inside Convection Algorithm
  ,                                       !- Zone Outside Convection Algorithm
  ,                                       !- Zone Conditioning Equipment List Name
  {e5fd7c9f-5182-4686-87ef-92239579714d}, !- Zone Air Inlet Port List
  {b6cd4a57-4504-456e-854f-2c0c97aeabba}, !- Zone Air Exhaust Port List
  {93fa9b0f-7446-4e3d-b435-de0d10f96dc6}, !- Zone Air Node Name
  {aee4876b-15bf-4b7d-8f9a-28f66ce4e7bd}, !- Zone Return Air Port List
  ,                                       !- Primary Daylighting Control Name
  ,                                       !- Fraction of Zone Controlled by Primary Daylighting Control
  ,                                       !- Secondary Daylighting Control Name
  ,                                       !- Fraction of Zone Controlled by Secondary Daylighting Control
  ,                                       !- Illuminance Map Name
  {9c0288af-e37f-4961-a2bc-2cc491b0a0ce}, !- Group Rendering Name
  {ddcc7d38-0f85-48bc-bbe7-138c57e2afe7}, !- Thermostat Name
  No,                                     !- Use Ideal Air Loads
  {2ba4e592-3a91-46fd-89ff-108496c1d157}; !- Humidistat Name

OS:Node,
  {ce58d079-ecfc-45e3-9280-4ed08a78c56a}, !- Handle
  {0e4ab154-bd87-469d-84c0-21e9c895b6b3}, !- Name
  {93fa9b0f-7446-4e3d-b435-de0d10f96dc6}, !- Inlet Port
  ;                                       !- Outlet Port

OS:Connection,
  {93fa9b0f-7446-4e3d-b435-de0d10f96dc6}, !- Handle
  {97623f48-f40f-4d78-8348-10ee142978c7}, !- Source Object
  11,                                     !- Outlet Port
  {ce58d079-ecfc-45e3-9280-4ed08a78c56a}, !- Target Object
  2;                                      !- Inlet Port

OS:PortList,
  {e5fd7c9f-5182-4686-87ef-92239579714d}, !- Handle
  {97623f48-f40f-4d78-8348-10ee142978c7}, !- HVAC Component
  {c5674a5d-4a40-4940-b928-08d45e04f6f9}; !- Port 1

OS:PortList,
  {b6cd4a57-4504-456e-854f-2c0c97aeabba}, !- Handle
  {97623f48-f40f-4d78-8348-10ee142978c7}; !- HVAC Component

OS:PortList,
  {aee4876b-15bf-4b7d-8f9a-28f66ce4e7bd}, !- Handle
  {97623f48-f40f-4d78-8348-10ee142978c7}, !- HVAC Component
  {8e2a02a3-a1af-481b-b23d-d97ea9d60c00}; !- Port 1

OS:Sizing:Zone,
  {e0b3649b-f8df-4868-b9ac-3e079a9522f4}, !- Handle
  {97623f48-f40f-4d78-8348-10ee142978c7}, !- Zone or ZoneList Name
  SupplyAirTemperature,                   !- Zone Cooling Design Supply Air Temperature Input Method
  12.777778,                              !- Zone Cooling Design Supply Air Temperature {C}
  11.11,                                  !- Zone Cooling Design Supply Air Temperature Difference {deltaC}
  SupplyAirTemperature,                   !- Zone Heating Design Supply Air Temperature Input Method
  40,                                     !- Zone Heating Design Supply Air Temperature {C}
  11.11,                                  !- Zone Heating Design Supply Air Temperature Difference {deltaC}
  0.0085,                                 !- Zone Cooling Design Supply Air Humidity Ratio {kg-H2O/kg-air}
  0.005,                                  !- Zone Heating Design Supply Air Humidity Ratio {kg-H2O/kg-air}
  ,                                       !- Zone Heating Sizing Factor
  ,                                       !- Zone Cooling Sizing Factor
  DesignDay,                              !- Cooling Design Air Flow Method
  ,                                       !- Cooling Design Air Flow Rate {m3/s}
  ,                                       !- Cooling Minimum Air Flow per Zone Floor Area {m3/s-m2}
  ,                                       !- Cooling Minimum Air Flow {m3/s}
  ,                                       !- Cooling Minimum Air Flow Fraction
  DesignDay,                              !- Heating Design Air Flow Method
  ,                                       !- Heating Design Air Flow Rate {m3/s}
  ,                                       !- Heating Maximum Air Flow per Zone Floor Area {m3/s-m2}
  ,                                       !- Heating Maximum Air Flow {m3/s}
  ,                                       !- Heating Maximum Air Flow Fraction
  No,                                     !- Account for Dedicated Outdoor Air System
  NeutralSupplyAir,                       !- Dedicated Outdoor Air System Control Strategy
  autosize,                               !- Dedicated Outdoor Air Low Setpoint Temperature for Design {C}
  autosize,                               !- Dedicated Outdoor Air High Setpoint Temperature for Design {C}
  Sensible Load Only No Latent Load,      !- Zone Load Sizing Method
  HumidityRatioDifference,                !- Zone Latent Cooling Design Supply Air Humidity Ratio Input Method
  ,                                       !- Zone Dehumidification Design Supply Air Humidity Ratio {kgWater/kgDryAir}
  0.005,                                  !- Zone Cooling Design Supply Air Humidity Ratio Difference {kgWater/kgDryAir}
  HumidityRatioDifference,                !- Zone Latent Heating Design Supply Air Humidity Ratio Input Method
  ,                                       !- Zone Humidification Design Supply Air Humidity Ratio {kgWater/kgDryAir}
  0.005;                                  !- Zone Humidification Design Supply Air Humidity Ratio Difference {kgWater/kgDryAir}

OS:ZoneHVAC:EquipmentList,
  {335395c6-7128-4f11-9b28-4beff7824e87}, !- Handle
  {c86f2716-76d3-4ff5-8f7e-319c993cc12f}, !- Name
  {97623f48-f40f-4d78-8348-10ee142978c7}, !- Thermal Zone
  ,                                       !- Load Distribution Scheme
  {4802eefc-66bd-45cf-aa49-34570522962c}, !- Zone Equipment 1
  1,                                      !- Zone Equipment Cooling Sequence 1
  1,                                      !- Zone Equipment Heating or No-Load Sequence 1
  ,                                       !- Zone Equipment Sequential Cooling Fraction Schedule Name 1
  ;                                       !- Zone Equipment Sequential Heating Fraction Schedule Name 1

OS:AdditionalProperties,
  {0db873a6-64c9-4fc8-92df-22c4c1ca2685}, !- Handle
  {97623f48-f40f-4d78-8348-10ee142978c7}, !- Object Name
  gbXMLId,                                !- Feature Name 1
  String,                                 !- Feature Data Type 1
  aim8914,                                !- Feature Value 1
  displayName,                            !- Feature Name 2
  String,                                 !- Feature Data Type 2
  AS1VAV1-1,                              !- Feature Value 2
  CADObjectId,                            !- Feature Name 3
  String,                                 !- Feature Data Type 3
  239544,                                 !- Feature Value 3
  id,                                     !- Feature Name 4
  String,                                 !- Feature Data Type 4
  aim8914;                                !- Feature Value 4

OS:ThermalZone,
  {ee265872-d4f0-4baf-b53c-7b3280b62620}, !- Handle
  AS1VAV1-2,                              !- Name
  ,                                       !- Multiplier
  ,                                       !- Ceiling Height {m}
  1276.45459852438,                       !- Volume {m3}
  ,                                       !- Floor Area {m2}
  ,                                       !- Zone Inside Convection Algorithm
  ,                                       !- Zone Outside Convection Algorithm
  ,                                       !- Zone Conditioning Equipment List Name
  {a52dace7-9c3d-4727-b096-bfd5f13cd930}, !- Zone Air Inlet Port List
  {23d1b5fe-c535-4203-a124-f48e9380c0ce}, !- Zone Air Exhaust Port List
  {698ecda0-3e19-4df5-994a-43ffdd454a78}, !- Zone Air Node Name
  {9f6b1f0a-1265-4d7d-a972-609fbe59e62b}, !- Zone Return Air Port List
  ,                                       !- Primary Daylighting Control Name
  ,                                       !- Fraction of Zone Controlled by Primary Daylighting Control
  ,                                       !- Secondary Daylighting Control Name
  ,                                       !- Fraction of Zone Controlled by Secondary Daylighting Control
  ,                                       !- Illuminance Map Name
  {18b4b3d5-8e54-46fc-8d30-bc298e5dc2fe}, !- Group Rendering Name
  {82dcab7f-c3b3-4492-b1ec-977437dc3ff5}, !- Thermostat Name
  No,                                     !- Use Ideal Air Loads
  {b09d0224-b598-4e53-b13d-6d5d85f6bfd2}; !- Humidistat Name

OS:Node,
  {7a4d9e71-a30c-48cb-b842-80d5d44f26d2}, !- Handle
  {353b93dc-62ee-40a8-8287-e1b6a8f90c91}, !- Name
  {698ecda0-3e19-4df5-994a-43ffdd454a78}, !- Inlet Port
  ;                                       !- Outlet Port

OS:Connection,
  {698ecda0-3e19-4df5-994a-43ffdd454a78}, !- Handle
  {ee265872-d4f0-4baf-b53c-7b3280b62620}, !- Source Object
  11,                                     !- Outlet Port
  {7a4d9e71-a30c-48cb-b842-80d5d44f26d2}, !- Target Object
  2;                                      !- Inlet Port

OS:PortList,
  {a52dace7-9c3d-4727-b096-bfd5f13cd930}, !- Handle
  {ee265872-d4f0-4baf-b53c-7b3280b62620}, !- HVAC Component
  {5636f0e7-b1f3-405b-aaa8-2dd1e84f920a}; !- Port 1

OS:PortList,
  {23d1b5fe-c535-4203-a124-f48e9380c0ce}, !- Handle
  {ee265872-d4f0-4baf-b53c-7b3280b62620}; !- HVAC Component

OS:PortList,
  {9f6b1f0a-1265-4d7d-a972-609fbe59e62b}, !- Handle
  {ee265872-d4f0-4baf-b53c-7b3280b62620}, !- HVAC Component
  {cdf18507-ff4b-4360-8d80-e4966ed18b8b}; !- Port 1

OS:Sizing:Zone,
  {75c3d835-8a45-46c6-8186-394990c9e037}, !- Handle
  {ee265872-d4f0-4baf-b53c-7b3280b62620}, !- Zone or ZoneList Name
  SupplyAirTemperature,                   !- Zone Cooling Design Supply Air Temperature Input Method
  12.777778,                              !- Zone Cooling Design Supply Air Temperature {C}
  11.11,                                  !- Zone Cooling Design Supply Air Temperature Difference {deltaC}
  SupplyAirTemperature,                   !- Zone Heating Design Supply Air Temperature Input Method
  40,                                     !- Zone Heating Design Supply Air Temperature {C}
  11.11,                                  !- Zone Heating Design Supply Air Temperature Difference {deltaC}
  0.0085,                                 !- Zone Cooling Design Supply Air Humidity Ratio {kg-H2O/kg-air}
  0.005,                                  !- Zone Heating Design Supply Air Humidity Ratio {kg-H2O/kg-air}