! Provided by CAB 11.26
OS:Version,
  {fbbf9ea4-3d07-4965-b239-4d13951388f7}, !- Handle
  3.8.0;                                  !- Version Identifier

OS:Site,
  {f35d42ef-e86f-4b61-a47b-4ddc534c239e}, !- Handle
  Denver-Aurora-Buckley AFB_CO_USA,       !- Name
  39.72,                                  !- Latitude {deg}
  -104.75,                                !- Longitude {deg}
  -7,                                     !- Time Zone {hr}
  1726,                                   !- Elevation {m}
  City;                                   !- Terrain

OS:SimulationControl,
  {fb54b6b0-6214-4e1e-9b72-d85026c72a28}, !- Handle
  Yes,                                    !- Do Zone Sizing Calculation
  Yes,                                    !- Do System Sizing Calculation
  Yes,                                    !- Do Plant Sizing Calculation
  No,                                     !- Run Simulation for Sizing Periods
  Yes,                                    !- Run Simulation for Weather File Run Periods
  0.04,                                   !- Loads Convergence Tolerance Value {W}
  0.2,                                    !- Temperature Convergence Tolerance Value {deltaC}
  FullInteriorAndExterior,                !- Solar Distribution
  25,                                     !- Maximum Number of Warmup Days
  6,                                      !- Minimum Number of Warmup Days
  No,                                     !- Do HVAC Sizing Simulation for Sizing Periods
  1;                                      !- Maximum Number of HVAC Sizing Simulation Passes

OS:Timestep,
  {61cf96cd-f4d5-45ce-8492-4237bb36ccba}, !- Handle
  6;                                      !- Number of Timesteps per Hour

OS:Building,
  {ea451b62-e6c2-49b2-aa71-871ac18c39cc}, !- Handle
  90.1-PRM-2019-MediumOffice-ASHRAE 169-2013-5B PRM baseline created: 2022-05-03 14:29:32 -0700, !- Name
  ,                                       !- Building Sector Type
  0,                                      !- North Axis {deg}
  ,                                       !- Nominal Floor to Floor Height {m}
  ,                                       !- Space Type Name
  ,                                       !- Default Construction Set Name
  ;                                       !- Default Schedule Set Name

OS:ThermalZone,
  {b0512506-9644-412a-bd86-18f0bb55bfe2}, !- Handle
  Core_bottom ZN Thermal Zone,            !- Name
  1,                                      !- Multiplier
  ,                                       !- Ceiling Height {m}
  ,                                       !- Volume {m3}
  ,                                       !- Floor Area {m2}
  ,                                       !- Zone Inside Convection Algorithm
  ,                                       !- Zone Outside Convection Algorithm
  ,                                       !- Zone Conditioning Equipment List Name
  {2c328b49-952a-42cd-b358-129bf2d5e361}, !- Zone Air Inlet Port List
  {f72e2992-6674-4481-b288-dee41a7747fc}, !- Zone Air Exhaust Port List
  {1673cbf8-09b0-44f9-be21-98204cd1c5cd}, !- Zone Air Node Name
  {01d44d3c-20da-4e46-b0aa-7d05bd7cf219}, !- Zone Return Air Port List
  ,                                       !- Primary Daylighting Control Name
  ,                                       !- Fraction of Zone Controlled by Primary Daylighting Control
  ,                                       !- Secondary Daylighting Control Name
  ,                                       !- Fraction of Zone Controlled by Secondary Daylighting Control
  ,                                       !- Illuminance Map Name
  ,                                       !- Group Rendering Name
  {a420bf0e-78d1-407a-aed9-8aefee1aab59}, !- Thermostat Name
  No;                                     !- Use Ideal Air Loads

OS:Node,
  {ea1ed4a2-9c94-4cdd-82fa-641f2f7d9dbd}, !- Handle
  Node 1,                                 !- Name
  {1673cbf8-09b0-44f9-be21-98204cd1c5cd}, !- Inlet Port
  ;                                       !- Outlet Port

OS:Connection,
  {1673cbf8-09b0-44f9-be21-98204cd1c5cd}, !- Handle
  {b0512506-9644-412a-bd86-18f0bb55bfe2}, !- Source Object
  11,                                     !- Outlet Port
  {ea1ed4a2-9c94-4cdd-82fa-641f2f7d9dbd}, !- Target Object
  2;                                      !- Inlet Port

OS:PortList,
  {2c328b49-952a-42cd-b358-129bf2d5e361}, !- Handle
  {b0512506-9644-412a-bd86-18f0bb55bfe2}; !- HVAC Component

OS:PortList,
  {f72e2992-6674-4481-b288-dee41a7747fc}, !- Handle
  {b0512506-9644-412a-bd86-18f0bb55bfe2}; !- HVAC Component

OS:PortList,
  {01d44d3c-20da-4e46-b0aa-7d05bd7cf219}, !- Handle
  {b0512506-9644-412a-bd86-18f0bb55bfe2}; !- HVAC Component

OS:Sizing:Zone,
  {ea608562-edca-4f6e-aaaf-e353c2a6ce1a}, !- Handle
  {b0512506-9644-412a-bd86-18f0bb55bfe2}, !- Zone or ZoneList Name
  SupplyAirTemperature,                   !- Zone Cooling Design Supply Air Temperature Input Method
  12.8888888888889,                       !- Zone Cooling Design Supply Air Temperature {C}
  11.11,                                  !- Zone Cooling Design Supply Air Temperature Difference {deltaC}
  SupplyAirTemperature,                   !- Zone Heating Design Supply Air Temperature Input Method
  32.1111111111111,                       !- Zone Heating Design Supply Air Temperature {C}
  11.11,                                  !- Zone Heating Design Supply Air Temperature Difference {deltaC}
  0.0085,                                 !- Zone Cooling Design Supply Air Humidity Ratio {kg-H2O/kg-air}
  0.008,                                  !- Zone Heating Design Supply Air Humidity Ratio {kg-H2O/kg-air}
  ,                                       !- Zone Heating Sizing Factor
  ,                                       !- Zone Cooling Sizing Factor
  DesignDay,                              !- Cooling Design Air Flow Method
  0,                                      !- Cooling Design Air Flow Rate {m3/s}
  0.000762,                               !- Cooling Minimum Air Flow per Zone Floor Area {m3/s-m2}
  0,                                      !- Cooling Minimum Air Flow {m3/s}
  0,                                      !- Cooling Minimum Air Flow Fraction
  DesignDay,                              !- Heating Design Air Flow Method
  0,                                      !- Heating Design Air Flow Rate {m3/s}
  0.002032,                               !- Heating Maximum Air Flow per Zone Floor Area {m3/s-m2}
  0.1415762,                              !- Heating Maximum Air Flow {m3/s}
  0.3,                                    !- Heating Maximum Air Flow Fraction
  No,                                     !- Account for Dedicated Outdoor Air System
  NeutralSupplyAir,                       !- Dedicated Outdoor Air System Control Strategy
  autosize,                               !- Dedicated Outdoor Air Low Setpoint Temperature for Design {C}
  autosize,                               !- Dedicated Outdoor Air High Setpoint Temperature for Design {C}
  Sensible Load Only No Latent Load,      !- Zone Load Sizing Method
  HumidityRatioDifference,                !- Zone Latent Cooling Design Supply Air Humidity Ratio Input Method
  ,                                       !- Zone Dehumidification Design Supply Air Humidity Ratio {kgWater/kgDryAir}
  0.005,                                  !- Zone Cooling Design Supply Air Humidity Ratio Difference {kgWater/kgDryAir}
  HumidityRatioDifference,                !- Zone Latent Heating Design Supply Air Humidity Ratio Input Method
  ,                                       !- Zone Humidification Design Supply Air Humidity Ratio {kgWater/kgDryAir}
  0.005,                                  !- Zone Humidification Design Supply Air Humidity Ratio Difference {kgWater/kgDryAir}
  ,                                       !- Zone Humidistat Dehumidification Set Point Schedule Name
  ,                                       !- Zone Humidistat Humidification Set Point Schedule Name
  ,                                       !- Design Zone Air Distribution Effectiveness in Cooling Mode
  ,                                       !- Design Zone Air Distribution Effectiveness in Heating Mode
  ,                                       !- Design Zone Secondary Recirculation Fraction {dimensionless}
  0.6;                                    !- Design Minimum Zone Ventilation Efficiency {dimensionless}

OS:ZoneHVAC:EquipmentList,
  {4fed1b76-5757-4c02-8737-43a96bc5c2d8}, !- Handle
  Zone HVAC Equipment List 1,             !- Name
  {b0512506-9644-412a-bd86-18f0bb55bfe2}; !- Thermal Zone

OS:Space,
  {23fd20db-8726-42c0-ab73-a061bee8f491}, !- Handle
  Core_bottom ZN,                         !- Name
  {0ccc535e-00e3-4576-bd14-280849372c03}, !- Space Type Name
  ,                                       !- Default Construction Set Name
  ,                                       !- Default Schedule Set Name
  0,                                      !- Direction of Relative North {deg}
  0,                                      !- X Origin {m}
  0,                                      !- Y Origin {m}
  0,                                      !- Z Origin {m}
  ,                                       !- Building Story Name
  {b0512506-9644-412a-bd86-18f0bb55bfe2}, !- Thermal Zone Name
  Yes,                                    !- Part of Total Floor Area
  {cc073458-11c2-4af7-bd5c-0fee1bea2522}; !- Design Specification Outdoor Air Object Name

OS:ThermostatSetpoint:DualSetpoint,
  {a420bf0e-78d1-407a-aed9-8aefee1aab59}, !- Handle
  Office WholeBuilding - Md Office Thermostat 1, !- Name
  {bcb307b0-e596-4b10-a1c3-45fec7d87744}, !- Heating Setpoint Temperature Schedule Name
  {5b9d0fce-a37d-4785-afce-4619c1eb757b}, !- Cooling Setpoint Temperature Schedule Name
  0;                                      !- Temperature Difference Between Cutout And Setpoint {deltaC}

OS:Schedule:Year,
  {bcb307b0-e596-4b10-a1c3-45fec7d87744}, !- Handle
  OfficeMedium HTGSETP_SCH_YES_OPTIMUM,   !- Name
  {1d3e92d3-1bdb-4c7a-8a22-1f3d98a7ff79}, !- Schedule Type Limits Name
  12,                                     !- Month 1
  31,                                     !- Day 1
  {a903da1d-395b-4664-8efd-922375abbda4}; !- Week Schedule Until Date 1

OS:ScheduleTypeLimits,
  {1d3e92d3-1bdb-4c7a-8a22-1f3d98a7ff79}, !- Handle
  Temperature,                            !- Name
  ,                                       !- Lower Limit Value
  ,                                       !- Upper Limit Value
  Continuous,                             !- Numeric Type
  temperature;                            !- Unit Type

OS:Schedule:Week,
  {a903da1d-395b-4664-8efd-922375abbda4}, !- Handle
  OfficeMedium HTGSETP_SCH_YES_OPTIMUM Week Rule - Jan1-Dec31, !- Name
  ,                                       !- Schedule Rendering Name
  {e2eca2fd-00bc-4611-87e9-b0ea0a3fcc4f}, !- Sunday Schedule:Day Name
  {dd86ccea-e738-468d-97de-167c872ac6cb}, !- Monday Schedule:Day Name
  {dd86ccea-e738-468d-97de-167c872ac6cb}, !- Tuesday Schedule:Day Name
  {dd86ccea-e738-468d-97de-167c872ac6cb}, !- Wednesday Schedule:Day Name
  {dd86ccea-e738-468d-97de-167c872ac6cb}, !- Thursday Schedule:Day Name
  {dd86ccea-e738-468d-97de-167c872ac6cb}, !- Friday Schedule:Day Name
  {9e404d1d-28e3-4eb2-b401-0d14f0e9af62}, !- Saturday Schedule:Day Name
  {e2eca2fd-00bc-4611-87e9-b0ea0a3fcc4f}, !- Holiday Schedule:Day Name
  {2562287d-61fe-4649-95ba-82289d2d0808}, !- SummerDesignDay Schedule:Day Name
  {e7a43472-75d2-4a86-b2c3-ad1239f6d058}, !- WinterDesignDay Schedule:Day Name
  {e2eca2fd-00bc-4611-87e9-b0ea0a3fcc4f}, !- CustomDay1 Schedule:Day Name
  {e2eca2fd-00bc-4611-87e9-b0ea0a3fcc4f}; !- CustomDay2 Schedule:Day Name

OS:Schedule:Day,
  {e2eca2fd-00bc-4611-87e9-b0ea0a3fcc4f}, !- Handle
  OfficeMedium HTGSETP_SCH_YES_OPTIMUM Default, !- Name
  {1d3e92d3-1bdb-4c7a-8a22-1f3d98a7ff79}, !- Schedule Type Limits Name
  No,                                     !- Interpolate to Timestep
  24,                                     !- Hour 1
  0,                                      !- Minute 1
  15.6;                                   !- Value Until Time 1

OS:Schedule:Day,
  {dd86ccea-e738-468d-97de-167c872ac6cb}, !- Handle
  OfficeMedium HTGSETP_SCH_YES_OPTIMUM Wkdy Day, !- Name
  {1d3e92d3-1bdb-4c7a-8a22-1f3d98a7ff79}, !- Schedule Type Limits Name
  No,                                     !- Interpolate to Timestep
  5,                                      !- Hour 1
  0,                                      !- Minute 1
  15.6,                                   !- Value Until Time 1
  6,                                      !- Hour 2
  0,                                      !- Minute 2
  17.8,                                   !- Value Until Time 2
  7,                                      !- Hour 3
  0,                                      !- Minute 3
  20,                                     !- Value Until Time 3
  22,                                     !- Hour 4
  0,                                      !- Minute 4
  21,                                     !- Value Until Time 4
  24,                                     !- Hour 5
  0,                                      !- Minute 5
  15.6;                                   !- Value Until Time 5

OS:Schedule:Day,
  {9e404d1d-28e3-4eb2-b401-0d14f0e9af62}, !- Handle
  OfficeMedium HTGSETP_SCH_YES_OPTIMUM Sat Day, !- Name
  {1d3e92d3-1bdb-4c7a-8a22-1f3d98a7ff79}, !- Schedule Type Limits Name
  No,                                     !- Interpolate to Timestep
  5,                                      !- Hour 1
  0,                                      !- Minute 1
  15.6,                                   !- Value Until Time 1
  6,                                      !- Hour 2
  0,                                      !- Minute 2
  17.8,                                   !- Value Until Time 2
  7,                                      !- Hour 3
  0,                                      !- Minute 3
  20,                                     !- Value Until Time 3
  17,                                     !- Hour 4
  0,                                      !- Minute 4
  21,                                     !- Value Until Time 4
  24,                                     !- Hour 5
  0,                                      !- Minute 5
  15.6;                                   !- Value Until Time 5

OS:Schedule:Day,
  {2562287d-61fe-4649-95ba-82289d2d0808}, !- Handle
  OfficeMedium HTGSETP_SCH_YES_OPTIMUM Summer Design Day, !- Name
  {1d3e92d3-1bdb-4c7a-8a22-1f3d98a7ff79}, !- Schedule Type Limits Name
  No,                                     !- Interpolate to Timestep
  24,                                     !- Hour 1
  0,                                      !- Minute 1
  15.6;                                   !- Value Until Time 1

OS:Schedule:Day,
  {e7a43472-75d2-4a86-b2c3-ad1239f6d058}, !- Handle
  OfficeMedium HTGSETP_SCH_YES_OPTIMUM Winter Design Day, !- Name
  {1d3e92d3-1bdb-4c7a-8a22-1f3d98a7ff79}, !- Schedule Type Limits Name
  No,                                     !- Interpolate to Timestep
  5,                                      !- Hour 1
  0,                                      !- Minute 1
  15.6,                                   !- Value Until Time 1
  6,                                      !- Hour 2
  0,                                      !- Minute 2
  17.6,                                   !- Value Until Time 2
  7,                                      !- Hour 3
  0,                                      !- Minute 3
  19.6,                                   !- Value Until Time 3
  22,                                     !- Hour 4
  0,                                      !- Minute 4
  21,                                     !- Value Until Time 4
  24,                                     !- Hour 5
  0,                                      !- Minute 5
  15.6;                                   !- Value Until Time 5

OS:YearDescription,
  {5f3b8c14-5b1b-4210-b4b5-e0118e8b5fde}, !- Handle
  2006,                                   !- Calendar Year
  ,                                       !- Day of Week for Start Day
  ;                                       !- Is Leap Year

OS:Schedule:Year,
  {5b9d0fce-a37d-4785-afce-4619c1eb757b}, !- Handle
  OfficeMedium CLGSETP_SCH_YES_OPTIMUM,   !- Name
  {1d3e92d3-1bdb-4c7a-8a22-1f3d98a7ff79}, !- Schedule Type Limits Name
  12,                                     !- Month 1
  31,                                     !- Day 1
  {34fc200a-6cc2-407d-9969-f39c482fa53f}; !- Week Schedule Until Date 1

OS:Schedule:Week,
  {34fc200a-6cc2-407d-9969-f39c482fa53f}, !- Handle
  OfficeMedium CLGSETP_SCH_YES_OPTIMUM Week Rule - Jan1-Dec31, !- Name
  ,                                       !- Schedule Rendering Name
  {2bb3df58-ad7c-456a-89c5-74d879f1dc6d}, !- Sunday Schedule:Day Name
  {4c83b5b9-35c6-4408-b68c-2b7c51edfa1e}, !- Monday Schedule:Day Name
  {4c83b5b9-35c6-4408-b68c-2b7c51edfa1e}, !- Tuesday Schedule:Day Name
  {4c83b5b9-35c6-4408-b68c-2b7c51edfa1e}, !- Wednesday Schedule:Day Name
  {4c83b5b9-35c6-4408-b68c-2b7c51edfa1e}, !- Thursday Schedule:Day Name
  {4c83b5b9-35c6-4408-b68c-2b7c51edfa1e}, !- Friday Schedule:Day Name
  {64c4dbb7-3772-45ea-92ae-0e74b53a8637}, !- Saturday Schedule:Day Name
  {2bb3df58-ad7c-456a-89c5-74d879f1dc6d}, !- Holiday Schedule:Day Name
  {8b193e1f-2738-4e46-82ca-c083b424220a}, !- SummerDesignDay Schedule:Day Name
  {6b8e7564-59f4-4e87-bac3-dad5b371720d}, !- WinterDesignDay Schedule:Day Name
  {2bb3df58-ad7c-456a-89c5-74d879f1dc6d}, !- CustomDay1 Schedule:Day Name
  {2bb3df58-ad7c-456a-89c5-74d879f1dc6d}; !- CustomDay2 Schedule:Day Name

OS:Schedule:Day,
  {2bb3df58-ad7c-456a-89c5-74d879f1dc6d}, !- Handle
  OfficeMedium CLGSETP_SCH_YES_OPTIMUM Default, !- Name
  {1d3e92d3-1bdb-4c7a-8a22-1f3d98a7ff79}, !- Schedule Type Limits Name
  No,                                     !- Interpolate to Timestep
  24,                                     !- Hour 1
  0,                                      !- Minute 1
  26.7;                                   !- Value Until Time 1

OS:Schedule:Day,
  {4c83b5b9-35c6-4408-b68c-2b7c51edfa1e}, !- Handle
  OfficeMedium CLGSETP_SCH_YES_OPTIMUM Wkdy Day, !- Name
  {1d3e92d3-1bdb-4c7a-8a22-1f3d98a7ff79}, !- Schedule Type Limits Name
  No,                                     !- Interpolate to Timestep
  5,                                      !- Hour 1
  0,                                      !- Minute 1
  26.7,                                   !- Value Until Time 1
  6,                                      !- Hour 2
  0,                                      !- Minute 2
  25.6,                                   !- Value Until Time 2
  7,                                      !- Hour 3
  0,                                      !- Minute 3
  25,                                     !- Value Until Time 3
  22,                                     !- Hour 4
  0,                                      !- Minute 4
  24,                                     !- Value Until Time 4
  24,                                     !- Hour 5
  0,                                      !- Minute 5
  26.7;                                   !- Value Until Time 5

OS:Schedule:Day,
  {64c4dbb7-3772-45ea-92ae-0e74b53a8637}, !- Handle
  OfficeMedium CLGSETP_SCH_YES_OPTIMUM Sat Day, !- Name
  {1d3e92d3-1bdb-4c7a-8a22-1f3d98a7ff79}, !- Schedule Type Limits Name
  No,                                     !- Interpolate to Timestep
  5,                                      !- Hour 1
  0,                                      !- Minute 1
  26.7,                                   !- Value Until Time 1
  6,                                      !- Hour 2
  0,                                      !- Minute 2
  25.7,                                   !- Value Until Time 2
  7,                                      !- Hour 3
  0,                                      !- Minute 3
  25,                                     !- Value Until Time 3
  17,                                     !- Hour 4
  0,                                      !- Minute 4
  24,                                     !- Value Until Time 4
  24,                                     !- Hour 5
  0,                                      !- Minute 5
  26.7;                                   !- Value Until Time 5

OS:Schedule:Day,
  {8b193e1f-2738-4e46-82ca-c083b424220a}, !- Handle
  OfficeMedium CLGSETP_SCH_YES_OPTIMUM Summer Design Day, !- Name
  {1d3e92d3-1bdb-4c7a-8a22-1f3d98a7ff79}, !- Schedule Type Limits Name
  No,                                     !- Interpolate to Timestep
  5,                                      !- Hour 1
  0,                                      !- Minute 1
  26.7,                                   !- Value Until Time 1
  6,                                      !- Hour 2
  0,                                      !- Minute 2
  25.7,                                   !- Value Until Time 2
  7,                                      !- Hour 3
  0,                                      !- Minute 3
  25,                                     !- Value Until Time 3
  22,                                     !- Hour 4
  0,                                      !- Minute 4
  24,                                     !- Value Until Time 4
  24,                                     !- Hour 5
  0,                                      !- Minute 5
  26.7;                                   !- Value Until Time 5

OS:Schedule:Day,
  {6b8e7564-59f4-4e87-bac3-dad5b371720d}, !- Handle
  OfficeMedium CLGSETP_SCH_YES_OPTIMUM Winter Design Day, !- Name
  {1d3e92d3-1bdb-4c7a-8a22-1f3d98a7ff79}, !- Schedule Type Limits Name
  No,                                     !- Interpolate to Timestep
  24,                                     !- Hour 1
  0,                                      !- Minute 1
  26.7;                                   !- Value Until Time 1

OS:Surface,
  {fe9b2247-d3f9-42d9-80e3-fcc3ee824abb}, !- Handle
  Core_bottom_ceiling,                    !- Name
  RoofCeiling,                            !- Surface Type
  {023d4738-612e-46d3-8174-020a8304414f}, !- Construction Name
  {23fd20db-8726-42c0-ab73-a061bee8f491}, !- Space Name
  Surface,                                !- Outside Boundary Condition
  {26775f09-8853-49a5-9a28-196656a9c009}, !- Outside Boundary Condition Object
  NoSun,                                  !- Sun Exposure
  NoWind,                                 !- Wind Exposure
  ,                                       !- View Factor to Ground
  ,                                       !- Number of Vertices
  45.3375, 4.5732, 2.7432,                !- X,Y,Z Vertex 1 {m}
  45.3375, 28.7006, 2.7432,               !- X,Y,Z Vertex 2 {m}
  4.5732, 28.7006, 2.7432,                !- X,Y,Z Vertex 3 {m}
  4.5732, 4.5732, 2.7432;                 !- X,Y,Z Vertex 4 {m}

OS:Construction,
  {023d4738-612e-46d3-8174-020a8304414f}, !- Handle
  Plenum Acoustical Tile,                 !- Name
  ,                                       !- Surface Rendering Name
  {36adf7c0-f9bf-4b8b-b63e-cf6f158fad61}; !- Layer 1

OS:Material,
  {36adf7c0-f9bf-4b8b-b63e-cf6f158fad61}, !- Handle
  Acoustic Tile - 1/2 in.,                !- Name
  MediumSmooth,                           !- Roughness
  0.0127,                                 !- Thickness {m}
  0.0576334643901673,                     !- Conductivity {W/m-K}
  288.332340731282,                       !- Density {kg/m3}
  795.492,                                !- Specific Heat {J/kg-K}
  0.9,                                    !- Thermal Absorptance
  0,                                      !- Solar Absorptance
  0;                                      !- Visible Absorptance

OS:Surface,
  {649016df-9879-4d42-b4ba-e4af3381bbdc}, !- Handle
  Core_bot_ZN_5_Floor,                    !- Name
  Floor,                                  !- Surface Type
  ,                                       !- Construction Name
  {23fd20db-8726-42c0-ab73-a061bee8f491}, !- Space Name
  GroundFCfactorMethod,                   !- Outside Boundary Condition
  ,                                       !- Outside Boundary Condition Object
  NoSun,                                  !- Sun Exposure
  NoWind,                                 !- Wind Exposure
  ,                                       !- View Factor to Ground
  ,                                       !- Number of Vertices
  45.3375, 28.7006, 0,                    !- X,Y,Z Vertex 1 {m}
  45.3375, 4.5732, 0,                     !- X,Y,Z Vertex 2 {m}
  4.5732, 4.5732, 0,                      !- X,Y,Z Vertex 3 {m}
  4.5732, 28.7006, 0;                     !- X,Y,Z Vertex 4 {m}

OS:Surface,
  {8fe6e525-0031-412f-82e9-7efb87904b90}, !- Handle
  Core_bot_ZN_5_Wall_East,                !- Name
  Wall,                                   !- Surface Type
  {7346bb34-584c-46dc-a09f-026a895f3524}, !- Construction Name
  {23fd20db-8726-42c0-ab73-a061bee8f491}, !- Space Name
  Surface,                                !- Outside Boundary Condition
  {7d9a3388-347f-43c0-a703-7efd1106e9a9}, !- Outside Boundary Condition Object
  NoSun,                                  !- Sun Exposure
  NoWind,                                 !- Wind Exposure
  ,                                       !- View Factor to Ground
  ,                                       !- Number of Vertices
  45.3375, 4.5732, 2.7432,                !- X,Y,Z Vertex 1 {m}
  45.3375, 4.5732, 0,                     !- X,Y,Z Vertex 2 {m}
  45.3375, 28.7006, 0,                    !- X,Y,Z Vertex 3 {m}
  45.3375, 28.7006, 2.7432;               !- X,Y,Z Vertex 4 {m}

OS:Construction,
  {7346bb34-584c-46dc-a09f-026a895f3524}, !- Handle
  Typical Interior Wall,                  !- Name
  ,                                       !- Surface Rendering Name
  {9e081613-70f8-46a8-a4d3-d359b1a047ca}, !- Layer 1
  {9e081613-70f8-46a8-a4d3-d359b1a047ca}; !- Layer 2

OS:Material,
  {9e081613-70f8-46a8-a4d3-d359b1a047ca}, !- Handle
  G01 13mm gypsum board,                  !- Name
  Smooth,                                 !- Roughness
  0.0127,                                 !- Thickness {m}
  0.16,                                   !- Conductivity {W/m-K}
  800,                                    !- Density {kg/m3}
  1090,                                   !- Specific Heat {J/kg-K}
  0.9,                                    !- Thermal Absorptance
  0.7,                                    !- Solar Absorptance
  0.5;                                    !- Visible Absorptance

OS:Surface,
  {9d6f85d1-c375-4ec7-916a-89f28c05f7b4}, !- Handle
  Core_bot_ZN_5_Wall_North,               !- Name
  Wall,                                   !- Surface Type
  {7346bb34-584c-46dc-a09f-026a895f3524}, !- Construction Name
  {23fd20db-8726-42c0-ab73-a061bee8f491}, !- Space Name
  Surface,                                !- Outside Boundary Condition
  {f3ba1420-3f14-406b-8010-ced667984803}, !- Outside Boundary Condition Object
  NoSun,                                  !- Sun Exposure
  NoWind,                                 !- Wind Exposure
  ,                                       !- View Factor to Ground
  ,                                       !- Number of Vertices
  45.3375, 28.7006, 2.7432,               !- X,Y,Z Vertex 1 {m}
  45.3375, 28.7006, 0,                    !- X,Y,Z Vertex 2 {m}
  4.5732, 28.7006, 0,                     !- X,Y,Z Vertex 3 {m}
  4.5732, 28.7006, 2.7432;                !- X,Y,Z Vertex 4 {m}

OS:Surface,
  {0b74be56-f047-41a7-912d-fd017d4a41ab}, !- Handle
  Core_bot_ZN_5_Wall_South,               !- Name
  Wall,                                   !- Surface Type
  {7346bb34-584c-46dc-a09f-026a895f3524}, !- Construction Name
  {23fd20db-8726-42c0-ab73-a061bee8f491}, !- Space Name
  Surface,                                !- Outside Boundary Condition
  {0fcdf080-9bc9-4d90-8283-edfc76eb5bd4}, !- Outside Boundary Condition Object
  NoSun,                                  !- Sun Exposure
  NoWind,                                 !- Wind Exposure
  ,                                       !- View Factor to Ground
  ,                                       !- Number of Vertices
  4.5732, 4.5732, 2.7432,                 !- X,Y,Z Vertex 1 {m}
  4.5732, 4.5732, 0,                      !- X,Y,Z Vertex 2 {m}
  45.3375, 4.5732, 0,                     !- X,Y,Z Vertex 3 {m}
  45.3375, 4.5732, 2.7432;                !- X,Y,Z Vertex 4 {m}

OS:Surface,
  {0d1783a1-ff15-49fe-8348-596a28cd75b6}, !- Handle
  Core_bot_ZN_5_Wall_West,                !- Name
  Wall,                                   !- Surface Type
  {7346bb34-584c-46dc-a09f-026a895f3524}, !- Construction Name
  {23fd20db-8726-42c0-ab73-a061bee8f491}, !- Space Name
  Surface,                                !- Outside Boundary Condition
  {e3822681-0847-4273-8727-3de0b5f1ce20}, !- Outside Boundary Condition Object
  NoSun,                                  !- Sun Exposure
  NoWind,                                 !- Wind Exposure
  ,                                       !- View Factor to Ground
  ,                                       !- Number of Vertices
  4.5732, 28.7006, 2.7432,                !- X,Y,Z Vertex 1 {m}
  4.5732, 28.7006, 0,                     !- X,Y,Z Vertex 2 {m}
  4.5732, 4.5732, 0,                      !- X,Y,Z Vertex 3 {m}
  4.5732, 4.5732, 2.7432;                 !- X,Y,Z Vertex 4 {m}

OS:InternalMass:Definition,
  {41924fb3-b059-486e-939f-219fd558b708}, !- Handle
  Core_bottom Mass Definition,            !- Name
  {5abd5a05-4ca4-48ba-b0b9-ef4901d30cc8}, !- Construction Name
  SurfaceArea,                            !- Design Level Calculation Method
  1967.07314364,                          !- Surface Area {m2}
  ,                                       !- Surface Area per Space Floor Area {dimensionless}
  ;                                       !- Surface Area per Person {m2/person}

OS:Construction,
  {5abd5a05-4ca4-48ba-b0b9-ef4901d30cc8}, !- Handle