OS:Version,
  {780c33e3-6e3e-4534-b6a6-246d3bd3b543}, !- Handle
  3.8.0;                                  !- Version Identifier