
!!! Contains x3 is_229_compliance_parameter

OS:Version,
  {d0716cd3-0841-4378-9fe1-20a6011f91a7}, !- Handle
  3.8.0;                                  !- Version Identifier

OS:Site,
  {da87e12f-b768-4a5b-8817-211eda15c51d}, !- Handle
  Denver-Aurora-Buckley.AFB_CO_USA WMO=724695, !- Name
  39.72,                                  !- Latitude {deg}
  -104.75,                                !- Longitude {deg}
  -7,                                     !- Time Zone {hr}
  1726,                                   !- Elevation {m}
  City;                                   !- Terrain

OS:SimulationControl,
  {6ae2f024-fc2f-4631-9fc6-c2fc9a532fd1}, !- Handle
  Yes,                                    !- Do Zone Sizing Calculation
  Yes,                                    !- Do System Sizing Calculation
  Yes,                                    !- Do Plant Sizing Calculation
  No,                                     !- Run Simulation for Sizing Periods
  Yes,                                    !- Run Simulation for Weather File Run Periods
  0.04,                                   !- Loads Convergence Tolerance Value {W}
  0.2,                                    !- Temperature Convergence Tolerance Value {deltaC}
  FullInteriorAndExterior,                !- Solar Distribution
  15,                                     !- Maximum Number of Warmup Days
  6,                                      !- Minimum Number of Warmup Days
  No,                                     !- Do HVAC Sizing Simulation for Sizing Periods
  1;                                      !- Maximum Number of HVAC Sizing Simulation Passes

OS:Building,
  {e56b1127-ea12-42aa-bc05-e49aecd2728f}, !- Handle
  OfficeSmall,                            !- Name
  ,                                       !- Building Sector Type
  0,                                      !- North Axis {deg}
  ,                                       !- Nominal Floor to Floor Height {m}
  ,                                       !- Space Type Name
  ,                                       !- Default Construction Set Name
  ;                                       !- Default Schedule Set Name

OS:ShadowCalculation,
  {a8074a3a-715d-4be8-88e4-446c09c21c58}, !- Handle
  PolygonClipping,                        !- Shading Calculation Method
  Periodic,                               !- Shading Calculation Update Frequency Method
  30,                                     !- Shading Calculation Update Frequency
  200,                                    !- Maximum Figures in Shadow Overlap Calculations
  ,                                       !- Polygon Clipping Algorithm
  512,                                    !- Pixel Counting Resolution
  ,                                       !- Sky Diffuse Modeling Algorithm
  No,                                     !- Output External Shading Calculation Results
  No,                                     !- Disable Self-Shading Within Shading Zone Groups
  No;                                     !- Disable Self-Shading From Shading Zone Groups to Other Zones

OS:HeatBalanceAlgorithm,
  {ab91bd38-50db-495b-b619-4fb2695f72ca}, !- Handle
  ConductionTransferFunction,             !- Algorithm
  200;                                    !- Surface Temperature Upper Limit {C}

OS:Timestep,
  {2ff829d6-edde-4484-9ca2-71e556fbd8b6}, !- Handle
  4;                                      !- Number of Timesteps per Hour

OS:ConvergenceLimits,
  {c2a57263-f9f3-4336-8aa9-d44130ede8cc}, !- Handle
  15,                                     !- Minimum System Timestep {minutes}
  5;                                      !- Maximum HVAC Iterations

OS:SizingPeriod:DesignDay,
  {c4434145-bc40-427f-919e-05c326cc98cb}, !- Handle
  Denver-Aurora-Buckley.AFB_CO_USA Ann Htg 99.6% Condns DB, !- Name
  -17.9,                                  !- Maximum Dry-Bulb Temperature {C}
  0,                                      !- Daily Dry-Bulb Temperature Range {deltaC}
  82237,                                  !- Barometric Pressure {Pa}
  2.5,                                    !- Wind Speed {m/s}
  180,                                    !- Wind Direction {deg}
  0,                                      !- Sky Clearness
  No,                                     !- Rain Indicator
  No,                                     !- Snow Indicator
  21,                                     !- Day of Month
  12,                                     !- Month
  WinterDesignDay,                        !- Day Type
  No,                                     !- Daylight Saving Time Indicator
  Wetbulb,                                !- Humidity Condition Type
  ,                                       !- Humidity Condition Day Schedule Name
  -17.9,                                  !- Wetbulb or DewPoint at Maximum Dry-Bulb {C}
  ,                                       !- Humidity Ratio at Maximum Dry-Bulb {kgWater/kgDryAir}
  ,                                       !- Enthalpy at Maximum Dry-Bulb {J/kg}
  DefaultMultipliers,                     !- Dry-Bulb Temperature Range Modifier Type
  ,                                       !- Dry-Bulb Temperature Range Modifier Day Schedule Name
  ASHRAEClearSky;                         !- Solar Model Indicator

OS:SizingPeriod:DesignDay,
  {d82cf4a6-9d3a-4361-be3d-b2460eaed670}, !- Handle
  Denver-Aurora-Buckley.AFB_CO_USA Ann Clg .4% Condns DB=>MWB, !- Name
  33.9,                                   !- Maximum Dry-Bulb Temperature {C}
  14.8,                                   !- Daily Dry-Bulb Temperature Range {deltaC}
  82237,                                  !- Barometric Pressure {Pa}
  3.6,                                    !- Wind Speed {m/s}
  30,                                     !- Wind Direction {deg}
  ,                                       !- Sky Clearness
  No,                                     !- Rain Indicator
  No,                                     !- Snow Indicator
  21,                                     !- Day of Month
  7,                                      !- Month
  SummerDesignDay,                        !- Day Type
  No,                                     !- Daylight Saving Time Indicator
  Wetbulb,                                !- Humidity Condition Type
  ,                                       !- Humidity Condition Day Schedule Name
  15,                                     !- Wetbulb or DewPoint at Maximum Dry-Bulb {C}
  ,                                       !- Humidity Ratio at Maximum Dry-Bulb {kgWater/kgDryAir}
  ,                                       !- Enthalpy at Maximum Dry-Bulb {J/kg}
  DefaultMultipliers,                     !- Dry-Bulb Temperature Range Modifier Type
  ,                                       !- Dry-Bulb Temperature Range Modifier Day Schedule Name
  ASHRAETau,                              !- Solar Model Indicator
  ,                                       !- Beam Solar Day Schedule Name
  ,                                       !- Diffuse Solar Day Schedule Name
  0.423,                                  !- ASHRAE Clear Sky Optical Depth for Beam Irradiance {dimensionless}
  2.02;                                   !- ASHRAE Clear Sky Optical Depth for Diffuse Irradiance {dimensionless}

OS:RunPeriod,
  {9fb39e93-3a9c-456a-a0da-6f9694988ea0}, !- Handle
  RUNPERIOD 1,                            !- Name
  1,                                      !- Begin Month
  1,                                      !- Begin Day of Month
  12,                                     !- End Month
  31,                                     !- End Day of Month
  No,                                     !- Use Weather File Holidays and Special Days
  No,                                     !- Use Weather File Daylight Saving Period
  No,                                     !- Apply Weekend Holiday Rule
  Yes,                                    !- Use Weather File Rain Indicators
  Yes,                                    !- Use Weather File Snow Indicators
  ;                                       !- Number of Times Runperiod to be Repeated

OS:YearDescription,
  {e9f9de9f-a02c-436c-b40c-19eb64032626}, !- Handle
  ,                                       !- Calendar Year
  Sunday;                                 !- Day of Week for Start Day

OS:RunPeriodControl:SpecialDays,
  {e5e81b6e-fd1e-4669-b812-5cae0ec66e17}, !- Handle
  New Years Day,                          !- Name
  January 1,                              !- Start Date
  1,                                      !- Duration {days}
  Holiday;                                !- Special Day Type

OS:RunPeriodControl:SpecialDays,
  {d8608697-838b-4e1e-a0fa-e28ff43382b3}, !- Handle
  Veterans Day,                           !- Name
  November 11,                            !- Start Date
  1,                                      !- Duration {days}
  Holiday;                                !- Special Day Type

OS:RunPeriodControl:SpecialDays,
  {c9a7b359-8c6b-41b1-b548-04a87a8b1c2b}, !- Handle
  Christmas,                              !- Name
  December 25,                            !- Start Date
  1,                                      !- Duration {days}
  Holiday;                                !- Special Day Type

OS:RunPeriodControl:SpecialDays,
  {cf7bc69a-ac67-44cd-b945-b6340da1c544}, !- Handle
  Independence Day,                       !- Name
  July 4,                                 !- Start Date
  1,                                      !- Duration {days}
  Holiday;                                !- Special Day Type

OS:RunPeriodControl:SpecialDays,
  {f1012377-5f80-4565-9ddb-bc57e432dfeb}, !- Handle
  MLK Day,                                !- Name
  3rd Monday in January,                  !- Start Date
  1,                                      !- Duration {days}
  Holiday;                                !- Special Day Type

OS:RunPeriodControl:SpecialDays,
  {5071c0e8-e685-44b5-a9b5-cacbba745f9f}, !- Handle
  Presidents Day,                         !- Name
  3rd Monday in February,                 !- Start Date
  1,                                      !- Duration {days}
  Holiday;                                !- Special Day Type

OS:RunPeriodControl:SpecialDays,
  {271ce713-e384-4951-bcd8-00a07fccb26e}, !- Handle
  Memorial Day,                           !- Name
  Last Monday in May,                     !- Start Date
  1,                                      !- Duration {days}
  Holiday;                                !- Special Day Type

OS:RunPeriodControl:SpecialDays,
  {a3b0bccd-a949-4904-a616-2cf5e1f7af5f}, !- Handle
  Labor Day,                              !- Name
  1st Monday in September,                !- Start Date
  1,                                      !- Duration {days}
  Holiday;                                !- Special Day Type

OS:RunPeriodControl:SpecialDays,
  {041ff1a8-e240-4642-a847-c997cdce0e4a}, !- Handle
  Columbus Day,                           !- Name
  2nd Monday in October,                  !- Start Date
  1,                                      !- Duration {days}
  Holiday;                                !- Special Day Type

OS:RunPeriodControl:SpecialDays,
  {8b1af58a-de5f-4d56-b323-bc7c599b3a51}, !- Handle
  Thanksgiving,                           !- Name
  4th Thursday in November,               !- Start Date
  1,                                      !- Duration {days}
  Holiday;                                !- Special Day Type

OS:RunPeriodControl:DaylightSavingTime,
  {98e62526-5a1b-458d-b7cd-542168f3ee0d}, !- Handle
  2nd Sunday in March,                    !- Start Date
  1st Sunday in November;                 !- End Date

OS:Schedule:Compact,
  {a51b06bb-0e04-4f1d-9ec2-0633a77f50b7}, !- Handle
  AIR_VELO_SCH,                           !- Name
  ,                                       !- Schedule Type Limits Name
  Through: 12/31,                         !- Field 1
  For: AllDays,                           !- Field 2
  Until: 24:00,                           !- Field 3
  0.2;                                    !- Field 4

OS:ScheduleTypeLimits,
  {fff1a408-2daf-4977-96c5-5d2344bc79f6}, !- Handle
  Schedule Type Limits 1;                 !- Name

OS:ScheduleTypeLimits,
  {6abaa165-2c4c-4fa2-ad17-dcc00e69ba15}, !- Handle
  Schedule Type Limits 2;                 !- Name

OS:ScheduleTypeLimits,
  {37952466-63c5-4dc1-bb0b-390e8f3336d2}, !- Handle
  Fraction,                               !- Name
  0,                                      !- Lower Limit Value
  1,                                      !- Upper Limit Value
  CONTINUOUS;                             !- Numeric Type

OS:ScheduleTypeLimits,
  {b4dcdedc-bedf-4c03-951e-b11b7df4df1f}, !- Handle
  Temperature,                            !- Name
  -60,                                    !- Lower Limit Value
  200,                                    !- Upper Limit Value
  CONTINUOUS,                             !- Numeric Type
  Temperature;                            !- Unit Type

OS:ScheduleTypeLimits,
  {7b939599-3555-4b60-b3b4-b872d375579f}, !- Handle
  On/Off,                                 !- Name
  0,                                      !- Lower Limit Value
  1,                                      !- Upper Limit Value
  DISCRETE,                               !- Numeric Type
  Availability;                           !- Unit Type

OS:ScheduleTypeLimits,
  {940168d1-b409-47da-b5d8-a767c8e0fa1e}, !- Handle
  Control Type,                           !- Name
  0,                                      !- Lower Limit Value
  4,                                      !- Upper Limit Value
  DISCRETE,                               !- Numeric Type
  ControlMode;                            !- Unit Type

OS:ScheduleTypeLimits,
  {80dd6d63-9bcd-47da-be72-e3b29e239404}, !- Handle
  Humidity,                               !- Name
  10,                                     !- Lower Limit Value
  90,                                     !- Upper Limit Value
  CONTINUOUS;                             !- Numeric Type

OS:ScheduleTypeLimits,
  {8338a325-9c92-46c5-b72e-6b2d7b6af022}, !- Handle
  Schedule Type Limits 3;                 !- Name

OS:Schedule:Compact,
  {7fb7c46b-4bf7-48b6-9840-b940afedc3ec}, !- Handle
  BLDG_LIGHT_SCH,                         !- Name
  {37952466-63c5-4dc1-bb0b-390e8f3336d2}, !- Schedule Type Limits Name
  Through: 12/31,                         !- Field 1
  For: Weekdays,                          !- Field 2
  Until: 5:00,                            !- Field 3
  0.18,                                   !- Field 4
  Until: 6:00,                            !- Field 5
  0.23,                                   !- Field 6
  Until: 7:00,                            !- Field 7
  0.178641345,                            !- Field 8
  Until: 8:00,                            !- Field 9
  0.32621463,                             !- Field 10
  Until: 12:00,                           !- Field 11
  0.69903135,                             !- Field 12
  Until: 13:00,                           !- Field 13
  0.6213612,                              !- Field 14
  Until: 17:00,                           !- Field 15
  0.69903135,                             !- Field 16
  Until: 18:00,                           !- Field 17
  0.473787915,                            !- Field 18
  Until: 20:00,                           !- Field 19
  0.32621463,                             !- Field 20
  Until: 22:00,                           !- Field 21
  0.24854448,                             !- Field 22
  Until: 23:00,                           !- Field 23
  0.178641345,                            !- Field 24
  Until: 24:00,                           !- Field 25
  0.18,                                   !- Field 26
  For: Weekends,                          !- Field 27
  Until: 24:00,                           !- Field 28
  0.18,                                   !- Field 29
  For: Holiday,                           !- Field 30
  Until: 24:00,                           !- Field 31
  0.18,                                   !- Field 32
  For: WinterDesignDay,                   !- Field 33
  Until: 24:00,                           !- Field 34
  0,                                      !- Field 35
  For: SummerDesignDay,                   !- Field 36
  Until: 24:00,                           !- Field 37
  1,                                      !- Field 38
  For: CustomDay1,                        !- Field 39
  Until: 24:00,                           !- Field 40
  0,                                      !- Field 41
  For: CustomDay2,                        !- Field 42
  Until: 24:00,                           !- Field 43
  0;                                      !- Field 44

OS:Schedule:Compact,
  {b2861b1c-0313-437c-8873-47e812cd8ce4}, !- Handle
  BLDG_EQUIP_SCH,                         !- Name
  {37952466-63c5-4dc1-bb0b-390e8f3336d2}, !- Schedule Type Limits Name
  Through: 12/31,                         !- Field 1
  For: WeekDays,                          !- Field 2
  Until: 6:00,                            !- Field 3
  0.4094775565,                           !- Field 4
  Until: 8:00,                            !- Field 5
  0.4797526335,                           !- Field 6
  Until: 12:00,                           !- Field 7
  0.959505267,                            !- Field 8
  Until: 13:00,                           !- Field 9
  0.90193495098,                          !- Field 10
  Until: 17:00,                           !- Field 11
  0.959505267,                            !- Field 12
  Until: 18:00,                           !- Field 13
  0.4797526335,                           !- Field 14
  Until: 23:00,                           !- Field 15
  0.1919010534,                           !- Field 16
  Until: 24:00,                           !- Field 17
  0.1637910226,                           !- Field 18
  For: Weekends,                          !- Field 19
  Until: 24:00,                           !- Field 20
  0.1637910226,                           !- Field 21
  For: Holiday,                           !- Field 22
  Until: 24:00,                           !- Field 23
  0.1637910226,                           !- Field 24
  For: WinterDesignDay,                   !- Field 25
  Until: 24:00,                           !- Field 26
  0.0,                                    !- Field 27
  For: SummerDesignDay,                   !- Field 28
  Until: 24:00,                           !- Field 29
  1.0,                                    !- Field 30
  For: CustomDay1,                        !- Field 31
  Until: 24:00,                           !- Field 32
  0.0,                                    !- Field 33
  For: CustomDay2,                        !- Field 34
  Until: 24:00,                           !- Field 35
  0.0;                                    !- Field 36

OS:Schedule:Compact,
  {7c20f897-50a4-471c-9eec-8993253a469e}, !- Handle
  BLDG_OCC_SCH,                           !- Name
  {37952466-63c5-4dc1-bb0b-390e8f3336d2}, !- Schedule Type Limits Name
  Through: 12/31,                         !- Field 1
  For: Weekdays,                          !- Field 2
  Until: 6:00,                            !- Field 3
  0.0,                                    !- Field 4
  Until: 7:00,                            !- Field 5
  0.11,                                   !- Field 6
  Until: 8:00,                            !- Field 7
  0.21,                                   !- Field 8
  Until: 12:00,                           !- Field 9
  1.0,                                    !- Field 10
  Until: 13:00,                           !- Field 11
  0.53,                                   !- Field 12
  Until: 17:00,                           !- Field 13
  1.0,                                    !- Field 14
  Until: 18:00,                           !- Field 15
  0.32,                                   !- Field 16
  Until: 22:00,                           !- Field 17
  0.11,                                   !- Field 18
  Until: 23:00,                           !- Field 19
  0.05,                                   !- Field 20
  Until: 24:00,                           !- Field 21
  0.0,                                    !- Field 22
  For: Weekends,                          !- Field 23
  Until: 24:00,                           !- Field 24
  0.0,                                    !- Field 25
  For: Holiday,                           !- Field 26
  Until: 24:00,                           !- Field 27
  0.0,                                    !- Field 28
  For: WinterDesignDay,                   !- Field 29
  Until: 24:00,                           !- Field 30
  0.0,                                    !- Field 31
  For: SummerDesignDay,                   !- Field 32
  Until: 24:00,                           !- Field 33
  1.0,                                    !- Field 34
  For: CustomDay1,                        !- Field 35
  Until: 24:00,                           !- Field 36
  0.0,                                    !- Field 37
  For: CustomDay2,                        !- Field 38
  Until: 24:00,                           !- Field 39
  0.0;                                    !- Field 40

OS:Schedule:Compact,
  {e7b0dbc4-f83a-4fc1-ac44-cf8d6929e256}, !- Handle
  BLDG_OCC_SCH_w_SB,                      !- Name
  {37952466-63c5-4dc1-bb0b-390e8f3336d2}, !- Schedule Type Limits Name
  Through: 12/31,                         !- Field 1
  For: Weekdays,                          !- Field 2
  Until: 01:00,                           !- Field 3
  0,                                      !- Field 4
  Until: 02:00,                           !- Field 5
  0,                                      !- Field 6
  Until: 03:00,                           !- Field 7
  0,                                      !- Field 8
  Until: 04:00,                           !- Field 9
  0,                                      !- Field 10
  Until: 05:00,                           !- Field 11
  0,                                      !- Field 12
  Until: 06:00,                           !- Field 13
  0,                                      !- Field 14
  Until: 07:00,                           !- Field 15
  0.11,                                   !- Field 16
  Until: 08:00,                           !- Field 17
  0.21,                                   !- Field 18
  Until: 09:00,                           !- Field 19
  1,                                      !- Field 20
  Until: 10:00,                           !- Field 21
  1,                                      !- Field 22
  Until: 11:00,                           !- Field 23
  0,                                      !- Field 24
  Until: 12:00,                           !- Field 25
  1,                                      !- Field 26
  Until: 13:00,                           !- Field 27
  0,                                      !- Field 28
  Until: 14:00,                           !- Field 29
  1,                                      !- Field 30
  Until: 15:00,                           !- Field 31
  0,                                      !- Field 32
  Until: 16:00,                           !- Field 33
  1,                                      !- Field 34
  Until: 17:00,                           !- Field 35
  1,                                      !- Field 36
  Until: 18:00,                           !- Field 37
  0.32,                                   !- Field 38
  Until: 19:00,                           !- Field 39
  0.11,                                   !- Field 40
  Until: 20:00,                           !- Field 41
  0.11,                                   !- Field 42
  Until: 21:00,                           !- Field 43
  0.11,                                   !- Field 44
  Until: 22:00,                           !- Field 45
  0.11,                                   !- Field 46
  Until: 23:00,                           !- Field 47
  0.05,                                   !- Field 48
  Until: 24:00,                           !- Field 49
  0,                                      !- Field 50
  For: Weekends,                          !- Field 51
  Until: 01:00,                           !- Field 52
  0,                                      !- Field 53
  Until: 02:00,                           !- Field 54
  0,                                      !- Field 55
  Until: 03:00,                           !- Field 56
  0,                                      !- Field 57
  Until: 04:00,                           !- Field 58
  0,                                      !- Field 59
  Until: 05:00,                           !- Field 60
  0,                                      !- Field 61
  Until: 06:00,                           !- Field 62
  0,                                      !- Field 63
  Until: 07:00,                           !- Field 64
  0,                                      !- Field 65
  Until: 08:00,                           !- Field 66
  0,                                      !- Field 67
  Until: 09:00,                           !- Field 68
  0,                                      !- Field 69
  Until: 10:00,                           !- Field 70
  0,                                      !- Field 71
  Until: 11:00,                           !- Field 72
  0,                                      !- Field 73
  Until: 12:00,                           !- Field 74
  0,                                      !- Field 75
  Until: 13:00,                           !- Field 76
  0,                                      !- Field 77
  Until: 14:00,                           !- Field 78
  0,                                      !- Field 79
  Until: 15:00,                           !- Field 80
  0,                                      !- Field 81
  Until: 16:00,                           !- Field 82
  0,                                      !- Field 83
  Until: 17:00,                           !- Field 84
  0,                                      !- Field 85
  Until: 18:00,                           !- Field 86
  0,                                      !- Field 87
  Until: 19:00,                           !- Field 88
  0,                                      !- Field 89
  Until: 20:00,                           !- Field 90
  0,                                      !- Field 91
  Until: 21:00,                           !- Field 92
  0,                                      !- Field 93
  Until: 22:00,                           !- Field 94
  0,                                      !- Field 95
  Until: 23:00,                           !- Field 96
  0,                                      !- Field 97
  Until: 24:00,                           !- Field 98
  0,                                      !- Field 99
  For: Holiday,                           !- Field 100
  Until: 24:00,                           !- Field 101
  0.0,                                    !- Field 102
  For: WinterDesignDay,                   !- Field 103
  Until: 24:00,                           !- Field 104
  0.0,                                    !- Field 105
  For: SummerDesignDay,                   !- Field 106
  Until: 24:00,                           !- Field 107
  1.0,                                    !- Field 108
  For: CustomDay1,                        !- Field 109
  Until: 24:00,                           !- Field 110
  0.0,                                    !- Field 111
  For: CustomDay2,                        !- Field 112
  Until: 24:00,                           !- Field 113
  0.0;                                    !- Field 114

OS:Schedule:Compact,
  {3274b291-7a5f-465d-9266-4e230c8ce808}, !- Handle
  BLDG_OCC_SCH_wo_SB,                     !- Name
  {37952466-63c5-4dc1-bb0b-390e8f3336d2}, !- Schedule Type Limits Name
  Through: 12/31,                         !- Field 1
  For: Weekdays,                          !- Field 2
  Until: 01:00,                           !- Field 3
  0,                                      !- Field 4
  Until: 02:00,                           !- Field 5
  0,                                      !- Field 6
  Until: 03:00,                           !- Field 7
  0,                                      !- Field 8
  Until: 04:00,                           !- Field 9
  0,                                      !- Field 10
  Until: 05:00,                           !- Field 11
  0,                                      !- Field 12
  Until: 06:00,                           !- Field 13
  0,                                      !- Field 14
  Until: 07:00,                           !- Field 15
  0.11,                                   !- Field 16
  Until: 08:00,                           !- Field 17
  0.21,                                   !- Field 18
  Until: 09:00,                           !- Field 19
  1,                                      !- Field 20
  Until: 10:00,                           !- Field 21
  1,                                      !- Field 22
  Until: 11:00,                           !- Field 23
  1,                                      !- Field 24
  Until: 12:00,                           !- Field 25
  1,                                      !- Field 26
  Until: 13:00,                           !- Field 27
  0.610394505402463,                      !- Field 28
  Until: 14:00,                           !- Field 29
  1,                                      !- Field 30
  Until: 15:00,                           !- Field 31
  1,                                      !- Field 32
  Until: 16:00,                           !- Field 33
  1,                                      !- Field 34
  Until: 17:00,                           !- Field 35
  1,                                      !- Field 36
  Until: 18:00,                           !- Field 37
  0.32,                                   !- Field 38
  Until: 19:00,                           !- Field 39
  0.11,                                   !- Field 40
  Until: 20:00,                           !- Field 41
  0.11,                                   !- Field 42