! Provided by CAB 11.26
OS:Version,
  {6be9d0b7-f9b6-4b12-a904-7aa89b7a6078}, !- Handle
  3.8.0;                                  !- Version Identifier

OS:Site,
  {0f74a701-ab21-42ce-be60-8ca44090dd47}, !- Handle
  Denver-Aurora-Buckley AFB_CO_USA,       !- Name
  39.72,                                  !- Latitude {deg}
  -104.75,                                !- Longitude {deg}
  -7,                                     !- Time Zone {hr}
  1726,                                   !- Elevation {m}
  City;                                   !- Terrain

OS:SimulationControl,
  {a5f45109-7efd-4eaf-b06e-ffbb1fb893e1}, !- Handle
  Yes,                                    !- Do Zone Sizing Calculation
  Yes,                                    !- Do System Sizing Calculation
  Yes,                                    !- Do Plant Sizing Calculation
  No,                                     !- Run Simulation for Sizing Periods
  Yes,                                    !- Run Simulation for Weather File Run Periods
  0.04,                                   !- Loads Convergence Tolerance Value {W}
  0.2,                                    !- Temperature Convergence Tolerance Value {deltaC}
  FullInteriorAndExterior,                !- Solar Distribution
  25,                                     !- Maximum Number of Warmup Days
  6,                                      !- Minimum Number of Warmup Days
  No,                                     !- Do HVAC Sizing Simulation for Sizing Periods
  1;                                      !- Maximum Number of HVAC Sizing Simulation Passes

OS:Timestep,
  {8156095d-db1a-42a3-b555-c63f689af565}, !- Handle
  6;                                      !- Number of Timesteps per Hour

OS:Building,
  {4058ba73-d69b-4007-8431-96cae876e4e9}, !- Handle
  -MediumOffice-ASHRAE 169-2013-5B created: 2022-05-03 14:28:56 -0700, !- Name
  ,                                       !- Building Sector Type
  0,                                      !- North Axis {deg}
  ,                                       !- Nominal Floor to Floor Height {m}
  ,                                       !- Space Type Name
  ,                                       !- Default Construction Set Name
  ;                                       !- Default Schedule Set Name

OS:Schedule:Year,
  {faed10bb-509a-4ab0-8424-4a735c8faffc}, !- Handle
  OfficeMedium INFIL_SCH_PNNL,            !- Name
  {5c601aa2-4cea-44ae-8589-188e7f60d52d}, !- Schedule Type Limits Name
  12,                                     !- Month 1
  31,                                     !- Day 1
  {acbcfa24-c9b5-47a8-8908-a3485d6c1de9}; !- Week Schedule Until Date 1

OS:ScheduleTypeLimits,
  {5c601aa2-4cea-44ae-8589-188e7f60d52d}, !- Handle
  Fractional,                             !- Name
  0,                                      !- Lower Limit Value
  1,                                      !- Upper Limit Value
  Continuous;                             !- Numeric Type

OS:Schedule:Week,
  {acbcfa24-c9b5-47a8-8908-a3485d6c1de9}, !- Handle
  OfficeMedium INFIL_SCH_PNNL Week Rule - Jan1-Dec31, !- Name
  ,                                       !- Schedule Rendering Name
  {c49ef85c-6fc0-489a-b739-be2a0cd4c13b}, !- Sunday Schedule:Day Name
  {73c4674c-60de-4cb4-b6b5-1af6a8f87b92}, !- Monday Schedule:Day Name
  {73c4674c-60de-4cb4-b6b5-1af6a8f87b92}, !- Tuesday Schedule:Day Name
  {73c4674c-60de-4cb4-b6b5-1af6a8f87b92}, !- Wednesday Schedule:Day Name
  {73c4674c-60de-4cb4-b6b5-1af6a8f87b92}, !- Thursday Schedule:Day Name
  {73c4674c-60de-4cb4-b6b5-1af6a8f87b92}, !- Friday Schedule:Day Name
  {9b9b7190-62f5-4fcc-bd15-dcd267a66ea4}, !- Saturday Schedule:Day Name
  {c49ef85c-6fc0-489a-b739-be2a0cd4c13b}, !- Holiday Schedule:Day Name
  {3dd5db11-3738-45ca-b91e-e3bb1bef67bb}, !- SummerDesignDay Schedule:Day Name
  {e063db80-c32c-4a67-a029-d28a6c2475f3}, !- WinterDesignDay Schedule:Day Name
  {c49ef85c-6fc0-489a-b739-be2a0cd4c13b}, !- CustomDay1 Schedule:Day Name
  {c49ef85c-6fc0-489a-b739-be2a0cd4c13b}; !- CustomDay2 Schedule:Day Name

OS:Schedule:Day,
  {c49ef85c-6fc0-489a-b739-be2a0cd4c13b}, !- Handle
  OfficeMedium INFIL_SCH_PNNL Default,    !- Name
  {5c601aa2-4cea-44ae-8589-188e7f60d52d}, !- Schedule Type Limits Name
  No,                                     !- Interpolate to Timestep
  24,                                     !- Hour 1
  0,                                      !- Minute 1
  1;                                      !- Value Until Time 1

OS:Schedule:Day,
  {73c4674c-60de-4cb4-b6b5-1af6a8f87b92}, !- Handle
  OfficeMedium INFIL_SCH_PNNL SmrDsn|Wkdy Day, !- Name
  {5c601aa2-4cea-44ae-8589-188e7f60d52d}, !- Schedule Type Limits Name
  No,                                     !- Interpolate to Timestep
  6,                                      !- Hour 1
  0,                                      !- Minute 1
  1,                                      !- Value Until Time 1
  22,                                     !- Hour 2
  0,                                      !- Minute 2
  0.25,                                   !- Value Until Time 2
  24,                                     !- Hour 3
  0,                                      !- Minute 3
  1;                                      !- Value Until Time 3

OS:Schedule:Day,
  {9b9b7190-62f5-4fcc-bd15-dcd267a66ea4}, !- Handle
  OfficeMedium INFIL_SCH_PNNL WntrDsn|Sat Day, !- Name
  {5c601aa2-4cea-44ae-8589-188e7f60d52d}, !- Schedule Type Limits Name
  No,                                     !- Interpolate to Timestep
  6,                                      !- Hour 1
  0,                                      !- Minute 1
  1,                                      !- Value Until Time 1
  18,                                     !- Hour 2
  0,                                      !- Minute 2
  0.25,                                   !- Value Until Time 2
  24,                                     !- Hour 3
  0,                                      !- Minute 3
  1;                                      !- Value Until Time 3

OS:Schedule:Day,
  {3dd5db11-3738-45ca-b91e-e3bb1bef67bb}, !- Handle
  OfficeMedium INFIL_SCH_PNNL Summer Design Day, !- Name
  {5c601aa2-4cea-44ae-8589-188e7f60d52d}, !- Schedule Type Limits Name
  No,                                     !- Interpolate to Timestep
  6,                                      !- Hour 1
  0,                                      !- Minute 1
  1,                                      !- Value Until Time 1
  22,                                     !- Hour 2
  0,                                      !- Minute 2
  0.25,                                   !- Value Until Time 2
  24,                                     !- Hour 3
  0,                                      !- Minute 3
  1;                                      !- Value Until Time 3

OS:Schedule:Day,
  {e063db80-c32c-4a67-a029-d28a6c2475f3}, !- Handle
  OfficeMedium INFIL_SCH_PNNL Winter Design Day, !- Name
  {5c601aa2-4cea-44ae-8589-188e7f60d52d}, !- Schedule Type Limits Name
  No,                                     !- Interpolate to Timestep
  6,                                      !- Hour 1
  0,                                      !- Minute 1
  1,                                      !- Value Until Time 1
  18,                                     !- Hour 2
  0,                                      !- Minute 2
  0.25,                                   !- Value Until Time 2
  24,                                     !- Hour 3
  0,                                      !- Minute 3
  1;                                      !- Value Until Time 3

OS:YearDescription,
  {1664628d-f48f-4d08-8bd8-5093b045bf8f}, !- Handle
  2006,                                   !- Calendar Year
  ,                                       !- Day of Week for Start Day
  ;                                       !- Is Leap Year

OS:ThermalZone,
  {9b73e7c8-9f36-45ad-a7b8-6559efe3dabb}, !- Handle
  Core_bottom ZN Thermal Zone,            !- Name
  1,                                      !- Multiplier
  ,                                       !- Ceiling Height {m}
  ,                                       !- Volume {m3}
  ,                                       !- Floor Area {m2}
  ,                                       !- Zone Inside Convection Algorithm
  ,                                       !- Zone Outside Convection Algorithm
  ,                                       !- Zone Conditioning Equipment List Name
  {bee63920-e3ad-44a5-98a8-dd735e6688fb}, !- Zone Air Inlet Port List
  {e64e8ea4-59fe-4931-a1d6-94402d01d792}, !- Zone Air Exhaust Port List
  {29b33157-cd71-42ca-8062-6096a1a59f4c}, !- Zone Air Node Name
  {0ea15169-e1b9-4a7a-adda-d5e7746d64a3}, !- Zone Return Air Port List
  ,                                       !- Primary Daylighting Control Name
  ,                                       !- Fraction of Zone Controlled by Primary Daylighting Control
  ,                                       !- Secondary Daylighting Control Name
  ,                                       !- Fraction of Zone Controlled by Secondary Daylighting Control
  ,                                       !- Illuminance Map Name
  ,                                       !- Group Rendering Name
  {b77d3d45-19a3-4848-abe7-99c60175039d}, !- Thermostat Name
  No;                                     !- Use Ideal Air Loads

OS:Node,
  {c693a431-8743-432d-b743-12f91b48e725}, !- Handle
  Node 1,                                 !- Name
  {29b33157-cd71-42ca-8062-6096a1a59f4c}, !- Inlet Port
  ;                                       !- Outlet Port

OS:Connection,
  {29b33157-cd71-42ca-8062-6096a1a59f4c}, !- Handle
  {9b73e7c8-9f36-45ad-a7b8-6559efe3dabb}, !- Source Object
  11,                                     !- Outlet Port
  {c693a431-8743-432d-b743-12f91b48e725}, !- Target Object
  2;                                      !- Inlet Port

OS:PortList,
  {bee63920-e3ad-44a5-98a8-dd735e6688fb}, !- Handle
  {9b73e7c8-9f36-45ad-a7b8-6559efe3dabb}; !- HVAC Component

OS:PortList,
  {e64e8ea4-59fe-4931-a1d6-94402d01d792}, !- Handle
  {9b73e7c8-9f36-45ad-a7b8-6559efe3dabb}; !- HVAC Component

OS:PortList,
  {0ea15169-e1b9-4a7a-adda-d5e7746d64a3}, !- Handle
  {9b73e7c8-9f36-45ad-a7b8-6559efe3dabb}; !- HVAC Component

OS:Sizing:Zone,
  {3915cb3b-98f7-4e37-8e16-80d0917038d2}, !- Handle
  {9b73e7c8-9f36-45ad-a7b8-6559efe3dabb}, !- Zone or ZoneList Name
  SupplyAirTemperature,                   !- Zone Cooling Design Supply Air Temperature Input Method
  12.7777777777778,                       !- Zone Cooling Design Supply Air Temperature {C}
  11.11,                                  !- Zone Cooling Design Supply Air Temperature Difference {deltaC}
  SupplyAirTemperature,                   !- Zone Heating Design Supply Air Temperature Input Method
  50.0000000000001,                       !- Zone Heating Design Supply Air Temperature {C}
  11.11,                                  !- Zone Heating Design Supply Air Temperature Difference {deltaC}
  0.0085,                                 !- Zone Cooling Design Supply Air Humidity Ratio {kg-H2O/kg-air}
  0.008,                                  !- Zone Heating Design Supply Air Humidity Ratio {kg-H2O/kg-air}
  ,                                       !- Zone Heating Sizing Factor
  ,                                       !- Zone Cooling Sizing Factor
  DesignDay,                              !- Cooling Design Air Flow Method
  0,                                      !- Cooling Design Air Flow Rate {m3/s}
  0.000762,                               !- Cooling Minimum Air Flow per Zone Floor Area {m3/s-m2}
  0,                                      !- Cooling Minimum Air Flow {m3/s}
  0,                                      !- Cooling Minimum Air Flow Fraction
  DesignDay,                              !- Heating Design Air Flow Method
  0,                                      !- Heating Design Air Flow Rate {m3/s}
  0.002032,                               !- Heating Maximum Air Flow per Zone Floor Area {m3/s-m2}
  0.1415762,                              !- Heating Maximum Air Flow {m3/s}
  0.3,                                    !- Heating Maximum Air Flow Fraction
  No,                                     !- Account for Dedicated Outdoor Air System
  NeutralSupplyAir,                       !- Dedicated Outdoor Air System Control Strategy
  autosize,                               !- Dedicated Outdoor Air Low Setpoint Temperature for Design {C}
  autosize,                               !- Dedicated Outdoor Air High Setpoint Temperature for Design {C}
  Sensible Load Only No Latent Load,      !- Zone Load Sizing Method
  HumidityRatioDifference,                !- Zone Latent Cooling Design Supply Air Humidity Ratio Input Method
  ,                                       !- Zone Dehumidification Design Supply Air Humidity Ratio {kgWater/kgDryAir}
  0.005,                                  !- Zone Cooling Design Supply Air Humidity Ratio Difference {kgWater/kgDryAir}
  HumidityRatioDifference,                !- Zone Latent Heating Design Supply Air Humidity Ratio Input Method
  ,                                       !- Zone Humidification Design Supply Air Humidity Ratio {kgWater/kgDryAir}
  0.005,                                  !- Zone Humidification Design Supply Air Humidity Ratio Difference {kgWater/kgDryAir}
  ,                                       !- Zone Humidistat Dehumidification Set Point Schedule Name
  ,                                       !- Zone Humidistat Humidification Set Point Schedule Name
  ,                                       !- Design Zone Air Distribution Effectiveness in Cooling Mode
  ,                                       !- Design Zone Air Distribution Effectiveness in Heating Mode
  ,                                       !- Design Zone Secondary Recirculation Fraction {dimensionless}
  0.6;                                    !- Design Minimum Zone Ventilation Efficiency {dimensionless}

OS:ZoneHVAC:EquipmentList,
  {a26245a3-5bee-4115-b13f-a5fe8c9e1002}, !- Handle
  Zone HVAC Equipment List 1,             !- Name
  {9b73e7c8-9f36-45ad-a7b8-6559efe3dabb}; !- Thermal Zone

OS:Space,
  {503bd897-c2c6-4c32-85e9-9f778f9e5f9c}, !- Handle
  Core_bottom ZN,                         !- Name
  {3ae153e2-3246-4169-b155-2b159d5902c3}, !- Space Type Name
  ,                                       !- Default Construction Set Name
  ,                                       !- Default Schedule Set Name
  0,                                      !- Direction of Relative North {deg}
  0,                                      !- X Origin {m}
  0,                                      !- Y Origin {m}
  0,                                      !- Z Origin {m}
  ,                                       !- Building Story Name
  {9b73e7c8-9f36-45ad-a7b8-6559efe3dabb}, !- Thermal Zone Name
  Yes,                                    !- Part of Total Floor Area
  {4946734c-b803-4bdf-a506-93c9b0ce8fd6}; !- Design Specification Outdoor Air Object Name

OS:ThermostatSetpoint:DualSetpoint,
  {b77d3d45-19a3-4848-abe7-99c60175039d}, !- Handle
  Office WholeBuilding - Md Office Thermostat 1, !- Name
  {e34231b9-55b4-4e6c-9edd-980c7727f933}, !- Heating Setpoint Temperature Schedule Name
  {8e1a4266-0034-452c-82a9-3b2cb11309f0}, !- Cooling Setpoint Temperature Schedule Name
  0;                                      !- Temperature Difference Between Cutout And Setpoint {deltaC}

OS:Schedule:Year,
  {e34231b9-55b4-4e6c-9edd-980c7727f933}, !- Handle
  OfficeMedium HTGSETP_SCH_YES_OPTIMUM,   !- Name
  {fdf4f64d-009a-4301-82ad-3e39a30d735e}, !- Schedule Type Limits Name
  12,                                     !- Month 1
  31,                                     !- Day 1
  {a5d7faaa-bfcc-4396-a1d4-603840326b0e}; !- Week Schedule Until Date 1

OS:ScheduleTypeLimits,
  {fdf4f64d-009a-4301-82ad-3e39a30d735e}, !- Handle
  Temperature,                            !- Name
  ,                                       !- Lower Limit Value
  ,                                       !- Upper Limit Value
  Continuous,                             !- Numeric Type
  temperature;                            !- Unit Type

OS:Schedule:Week,
  {a5d7faaa-bfcc-4396-a1d4-603840326b0e}, !- Handle
  OfficeMedium HTGSETP_SCH_YES_OPTIMUM Week Rule - Jan1-Dec31, !- Name
  ,                                       !- Schedule Rendering Name
  {3a2d8c49-c69c-4968-83ff-8e5c54d600f9}, !- Sunday Schedule:Day Name
  {279c5f17-24b6-4343-b6ab-23953bea782e}, !- Monday Schedule:Day Name
  {279c5f17-24b6-4343-b6ab-23953bea782e}, !- Tuesday Schedule:Day Name
  {279c5f17-24b6-4343-b6ab-23953bea782e}, !- Wednesday Schedule:Day Name
  {279c5f17-24b6-4343-b6ab-23953bea782e}, !- Thursday Schedule:Day Name
  {279c5f17-24b6-4343-b6ab-23953bea782e}, !- Friday Schedule:Day Name
  {57991ef2-7774-4f32-94f6-8136655e5c25}, !- Saturday Schedule:Day Name
  {3a2d8c49-c69c-4968-83ff-8e5c54d600f9}, !- Holiday Schedule:Day Name
  {aabc06d7-a315-43ae-b998-9279e6cbde97}, !- SummerDesignDay Schedule:Day Name
  {8aa0ffa3-f0ea-42ea-bbb6-8747d8f23969}, !- WinterDesignDay Schedule:Day Name
  {3a2d8c49-c69c-4968-83ff-8e5c54d600f9}, !- CustomDay1 Schedule:Day Name
  {3a2d8c49-c69c-4968-83ff-8e5c54d600f9}; !- CustomDay2 Schedule:Day Name

OS:Schedule:Day,
  {3a2d8c49-c69c-4968-83ff-8e5c54d600f9}, !- Handle
  OfficeMedium HTGSETP_SCH_YES_OPTIMUM Default, !- Name
  {fdf4f64d-009a-4301-82ad-3e39a30d735e}, !- Schedule Type Limits Name
  No,                                     !- Interpolate to Timestep
  24,                                     !- Hour 1
  0,                                      !- Minute 1
  15.6;                                   !- Value Until Time 1

OS:Schedule:Day,
  {279c5f17-24b6-4343-b6ab-23953bea782e}, !- Handle
  OfficeMedium HTGSETP_SCH_YES_OPTIMUM Wkdy Day, !- Name
  {fdf4f64d-009a-4301-82ad-3e39a30d735e}, !- Schedule Type Limits Name
  No,                                     !- Interpolate to Timestep
  5,                                      !- Hour 1
  0,                                      !- Minute 1
  15.6,                                   !- Value Until Time 1
  6,                                      !- Hour 2
  0,                                      !- Minute 2
  17.8,                                   !- Value Until Time 2
  7,                                      !- Hour 3
  0,                                      !- Minute 3
  20,                                     !- Value Until Time 3
  22,                                     !- Hour 4
  0,                                      !- Minute 4
  21,                                     !- Value Until Time 4
  24,                                     !- Hour 5
  0,                                      !- Minute 5
  15.6;                                   !- Value Until Time 5

OS:Schedule:Day,
  {57991ef2-7774-4f32-94f6-8136655e5c25}, !- Handle
  OfficeMedium HTGSETP_SCH_YES_OPTIMUM Sat Day, !- Name
  {fdf4f64d-009a-4301-82ad-3e39a30d735e}, !- Schedule Type Limits Name
  No,                                     !- Interpolate to Timestep
  5,                                      !- Hour 1
  0,                                      !- Minute 1
  15.6,                                   !- Value Until Time 1
  6,                                      !- Hour 2
  0,                                      !- Minute 2
  17.8,                                   !- Value Until Time 2
  7,                                      !- Hour 3
  0,                                      !- Minute 3
  20,                                     !- Value Until Time 3
  17,                                     !- Hour 4
  0,                                      !- Minute 4
  21,                                     !- Value Until Time 4
  24,                                     !- Hour 5
  0,                                      !- Minute 5
  15.6;                                   !- Value Until Time 5

OS:Schedule:Day,
  {aabc06d7-a315-43ae-b998-9279e6cbde97}, !- Handle
  OfficeMedium HTGSETP_SCH_YES_OPTIMUM Summer Design Day, !- Name
  {fdf4f64d-009a-4301-82ad-3e39a30d735e}, !- Schedule Type Limits Name
  No,                                     !- Interpolate to Timestep
  24,                                     !- Hour 1
  0,                                      !- Minute 1
  15.6;                                   !- Value Until Time 1

OS:Schedule:Day,
  {8aa0ffa3-f0ea-42ea-bbb6-8747d8f23969}, !- Handle
  OfficeMedium HTGSETP_SCH_YES_OPTIMUM Winter Design Day, !- Name
  {fdf4f64d-009a-4301-82ad-3e39a30d735e}, !- Schedule Type Limits Name
  No,                                     !- Interpolate to Timestep
  5,                                      !- Hour 1
  0,                                      !- Minute 1
  15.6,                                   !- Value Until Time 1
  6,                                      !- Hour 2
  0,                                      !- Minute 2
  17.6,                                   !- Value Until Time 2
  7,                                      !- Hour 3
  0,                                      !- Minute 3
  19.6,                                   !- Value Until Time 3
  22,                                     !- Hour 4
  0,                                      !- Minute 4
  21,                                     !- Value Until Time 4
  24,                                     !- Hour 5
  0,                                      !- Minute 5
  15.6;                                   !- Value Until Time 5

OS:Schedule:Year,
  {8e1a4266-0034-452c-82a9-3b2cb11309f0}, !- Handle
  OfficeMedium CLGSETP_SCH_YES_OPTIMUM,   !- Name
  {fdf4f64d-009a-4301-82ad-3e39a30d735e}, !- Schedule Type Limits Name
  12,                                     !- Month 1
  31,                                     !- Day 1
  {d7264adc-112f-4c44-95c2-3ea85de6db1a}; !- Week Schedule Until Date 1

OS:Schedule:Week,
  {d7264adc-112f-4c44-95c2-3ea85de6db1a}, !- Handle
  OfficeMedium CLGSETP_SCH_YES_OPTIMUM Week Rule - Jan1-Dec31, !- Name
  ,                                       !- Schedule Rendering Name
  {94e443ba-c809-46e1-b57d-1fe18d113ef1}, !- Sunday Schedule:Day Name
  {c4b7541e-5b9d-47a5-be86-4a6b44518479}, !- Monday Schedule:Day Name
  {c4b7541e-5b9d-47a5-be86-4a6b44518479}, !- Tuesday Schedule:Day Name
  {c4b7541e-5b9d-47a5-be86-4a6b44518479}, !- Wednesday Schedule:Day Name
  {c4b7541e-5b9d-47a5-be86-4a6b44518479}, !- Thursday Schedule:Day Name
  {c4b7541e-5b9d-47a5-be86-4a6b44518479}, !- Friday Schedule:Day Name
  {1c4c1c89-31b1-4bc0-a9f1-cf2e077712c7}, !- Saturday Schedule:Day Name
  {94e443ba-c809-46e1-b57d-1fe18d113ef1}, !- Holiday Schedule:Day Name
  {3bfbfb27-dde8-4e83-8205-4c55e37eecc1}, !- SummerDesignDay Schedule:Day Name
  {d83bd70a-589d-4b1c-9db4-7482da872d4d}, !- WinterDesignDay Schedule:Day Name
  {94e443ba-c809-46e1-b57d-1fe18d113ef1}, !- CustomDay1 Schedule:Day Name
  {94e443ba-c809-46e1-b57d-1fe18d113ef1}; !- CustomDay2 Schedule:Day Name

OS:Schedule:Day,
  {94e443ba-c809-46e1-b57d-1fe18d113ef1}, !- Handle
  OfficeMedium CLGSETP_SCH_YES_OPTIMUM Default, !- Name
  {fdf4f64d-009a-4301-82ad-3e39a30d735e}, !- Schedule Type Limits Name
  No,                                     !- Interpolate to Timestep
  24,                                     !- Hour 1
  0,                                      !- Minute 1
  26.7;                                   !- Value Until Time 1

OS:Schedule:Day,
  {c4b7541e-5b9d-47a5-be86-4a6b44518479}, !- Handle
  OfficeMedium CLGSETP_SCH_YES_OPTIMUM Wkdy Day, !- Name
  {fdf4f64d-009a-4301-82ad-3e39a30d735e}, !- Schedule Type Limits Name
  No,                                     !- Interpolate to Timestep
  5,                                      !- Hour 1
  0,                                      !- Minute 1
  26.7,                                   !- Value Until Time 1
  6,                                      !- Hour 2
  0,                                      !- Minute 2
  25.6,                                   !- Value Until Time 2
  7,                                      !- Hour 3
  0,                                      !- Minute 3
  25,                                     !- Value Until Time 3
  22,                                     !- Hour 4
  0,                                      !- Minute 4
  24,                                     !- Value Until Time 4
  24,                                     !- Hour 5
  0,                                      !- Minute 5
  26.7;                                   !- Value Until Time 5

OS:Schedule:Day,
  {1c4c1c89-31b1-4bc0-a9f1-cf2e077712c7}, !- Handle
  OfficeMedium CLGSETP_SCH_YES_OPTIMUM Sat Day, !- Name
  {fdf4f64d-009a-4301-82ad-3e39a30d735e}, !- Schedule Type Limits Name
  No,                                     !- Interpolate to Timestep
  5,                                      !- Hour 1
  0,                                      !- Minute 1
  26.7,                                   !- Value Until Time 1
  6,                                      !- Hour 2
  0,                                      !- Minute 2
  25.7,                                   !- Value Until Time 2
  7,                                      !- Hour 3
  0,                                      !- Minute 3
  25,                                     !- Value Until Time 3
  17,                                     !- Hour 4
  0,                                      !- Minute 4
  24,                                     !- Value Until Time 4
  24,                                     !- Hour 5
  0,                                      !- Minute 5
  26.7;                                   !- Value Until Time 5

OS:Schedule:Day,
  {3bfbfb27-dde8-4e83-8205-4c55e37eecc1}, !- Handle
  OfficeMedium CLGSETP_SCH_YES_OPTIMUM Summer Design Day, !- Name
  {fdf4f64d-009a-4301-82ad-3e39a30d735e}, !- Schedule Type Limits Name
  No,                                     !- Interpolate to Timestep
  5,                                      !- Hour 1
  0,                                      !- Minute 1
  26.7,                                   !- Value Until Time 1
  6,                                      !- Hour 2
  0,                                      !- Minute 2
  25.7,                                   !- Value Until Time 2
  7,                                      !- Hour 3
  0,                                      !- Minute 3
  25,                                     !- Value Until Time 3
  22,                                     !- Hour 4
  0,                                      !- Minute 4
  24,                                     !- Value Until Time 4
  24,                                     !- Hour 5
  0,                                      !- Minute 5
  26.7;                                   !- Value Until Time 5

OS:Schedule:Day,
  {d83bd70a-589d-4b1c-9db4-7482da872d4d}, !- Handle
  OfficeMedium CLGSETP_SCH_YES_OPTIMUM Winter Design Day, !- Name
  {fdf4f64d-009a-4301-82ad-3e39a30d735e}, !- Schedule Type Limits Name
  No,                                     !- Interpolate to Timestep
  24,                                     !- Hour 1
  0,                                      !- Minute 1
  26.7;                                   !- Value Until Time 1

OS:Surface,
  {8e6c3df8-66b7-41e1-ba39-e9f86e9a7e4e}, !- Handle
  Core_bottom_ceiling,                    !- Name
  RoofCeiling,                            !- Surface Type
  {cb89291d-331b-4925-8f6c-915faa8a9fc2}, !- Construction Name
  {503bd897-c2c6-4c32-85e9-9f778f9e5f9c}, !- Space Name
  Surface,                                !- Outside Boundary Condition
  {d5e41742-4b8e-4352-add2-e821887aa938}, !- Outside Boundary Condition Object
  NoSun,                                  !- Sun Exposure
  NoWind,                                 !- Wind Exposure
  ,                                       !- View Factor to Ground
  ,                                       !- Number of Vertices
  45.3375, 4.5732, 2.7432,                !- X,Y,Z Vertex 1 {m}
  45.3375, 28.7006, 2.7432,               !- X,Y,Z Vertex 2 {m}
  4.5732, 28.7006, 2.7432,                !- X,Y,Z Vertex 3 {m}
  4.5732, 4.5732, 2.7432;                 !- X,Y,Z Vertex 4 {m}

OS:Construction,
  {cb89291d-331b-4925-8f6c-915faa8a9fc2}, !- Handle
  Plenum Acoustical Tile,                 !- Name
  ,                                       !- Surface Rendering Name
  {02798d57-5364-4355-88a7-e174b92db7b0}; !- Layer 1

OS:Material,
  {02798d57-5364-4355-88a7-e174b92db7b0}, !- Handle
  Acoustic Tile - 1/2 in.,                !- Name
  MediumSmooth,                           !- Roughness
  0.0127,                                 !- Thickness {m}
  0.0576334643901673,                     !- Conductivity {W/m-K}
  288.332340731282,                       !- Density {kg/m3}
  795.492,                                !- Specific Heat {J/kg-K}
  0.9,                                    !- Thermal Absorptance
  0,                                      !- Solar Absorptance
  0;                                      !- Visible Absorptance

OS:Surface,
  {6f09a072-4f21-4b56-a332-411f74208ea9}, !- Handle
  Core_bot_ZN_5_Floor,                    !- Name
  Floor,                                  !- Surface Type
  ,                                       !- Construction Name
  {503bd897-c2c6-4c32-85e9-9f778f9e5f9c}, !- Space Name
  GroundFCfactorMethod,                   !- Outside Boundary Condition
  ,                                       !- Outside Boundary Condition Object
  NoSun,                                  !- Sun Exposure
  NoWind,                                 !- Wind Exposure
  ,                                       !- View Factor to Ground
  ,                                       !- Number of Vertices
  45.3375, 28.7006, 0,                    !- X,Y,Z Vertex 1 {m}
  45.3375, 4.5732, 0,                     !- X,Y,Z Vertex 2 {m}
  4.5732, 4.5732, 0,                      !- X,Y,Z Vertex 3 {m}
  4.5732, 28.7006, 0;                     !- X,Y,Z Vertex 4 {m}

OS:Surface,